<?xml version="1.0" encoding="UTF-8"?>

<!-- generated on 2025-04-15 15:15:41 by Eclipse SUMO netedit Version 1.22.0
<neteditConfiguration xmlns:xsi="http://www.w3.org/2001/XMLSchema-instance" xsi:noNamespaceSchemaLocation="http://sumo.dlr.de/xsd/neteditConfiguration.xsd">

    <input>
        <sumo-net-file value="/home/wmn/TrafficAlpha/multi_junctions.net.xml"/>
    </input>

    <output>
        <output-file value="/home/wmn/TrafficAlpha/multi_junctions.net.xml"/>
    </output>

    <processing>
        <offset.disable-normalization value="true"/>
    </processing>

    <junctions>
        <no-turnarounds value="true"/>
    </junctions>

    <netedit>
        <new-network value="false"/>
    </netedit>

</neteditConfiguration>
-->

<net version="1.20" junctionCornerDetail="5" limitTurnSpeed="5.50" xmlns:xsi="http://www.w3.org/2001/XMLSchema-instance" xsi:noNamespaceSchemaLocation="http://sumo.dlr.de/xsd/net_file.xsd">

    <location netOffset="0.00,0.00" convBoundary="-38.93,-76.82,320.55,69.09" origBoundary="10000000000.00,10000000000.00,-10000000000.00,-10000000000.00" projParameter="!"/>

    <edge id=":J1_0" function="internal">
        <lane id=":J1_0_0" index="0" speed="7.56" length="12.17" shape="39.32,8.57 38.83,4.53 37.68,1.65 35.89,-0.09 33.45,-0.67"/>
    </edge>
    <edge id=":J1_1" function="internal">
        <lane id=":J1_1_0" index="0" speed="13.89" length="27.66" shape="42.52,8.45 42.67,-0.97 43.47,-8.62 44.32,-14.62 44.63,-19.09"/>
    </edge>
    <edge id=":J1_2" function="internal">
        <lane id=":J1_2_0" index="0" speed="10.28" length="24.36" shape="45.71,8.34 46.41,1.62 49.05,-3.23 53.64,-6.19 60.17,-7.29"/>
    </edge>
    <edge id=":J1_3" function="internal">
        <lane id=":J1_3_0" index="0" speed="7.20" length="11.41" shape="60.37,2.31 56.68,2.74 54.07,3.85 52.55,5.64 52.11,8.11"/>
    </edge>
    <edge id=":J1_4" function="internal">
        <lane id=":J1_4_0" index="0" speed="13.89" length="27.06" shape="60.31,-0.89 51.82,-1.23 45.57,-2.26 39.98,-3.35 33.46,-3.87"/>
    </edge>
    <edge id=":J1_5" function="internal">
        <lane id=":J1_5_0" index="0" speed="10.46" length="24.57" shape="60.24,-4.09 53.66,-4.91 48.86,-7.68 45.85,-12.41 44.63,-19.09"/>
    </edge>
    <edge id=":J1_6" function="internal">
        <lane id=":J1_6_0" index="0" speed="6.66" length="9.34" shape="54.22,-19.51 54.68,-16.92 55.80,-15.08 57.59,-14.01 60.04,-13.69"/>
    </edge>
    <edge id=":J1_7" function="internal">
        <lane id=":J1_7_0" index="0" speed="13.89" length="27.50" shape="51.02,-19.37 52.11,8.11"/>
    </edge>
    <edge id=":J1_8" function="internal">
        <lane id=":J1_8_0" index="0" speed="10.13" length="24.24" shape="47.82,-19.23 47.18,-12.48 44.57,-7.68 40.00,-4.81 33.46,-3.87"/>
    </edge>
    <edge id=":J1_9" function="internal">
        <lane id=":J1_9_0" index="0" speed="7.79" length="13.88" shape="33.51,-13.47 38.47,-13.80 41.97,-14.85 44.02,-16.61 44.63,-19.09"/>
    </edge>
    <edge id=":J1_10" function="internal">
        <lane id=":J1_10_0" index="0" speed="13.89" length="26.61" shape="33.49,-10.27 60.11,-10.49"/>
    </edge>
    <edge id=":J1_11" function="internal">
        <lane id=":J1_11_0" index="0" speed="10.53" length="24.56" shape="33.48,-7.07 40.03,-6.09 44.78,-3.21 47.74,1.56 48.91,8.22"/>
    </edge>
    <edge id=":J4_0" function="internal">
        <lane id=":J4_0_0" index="0" speed="6.49" length="9.03" shape="116.03,6.76 115.65,4.31 114.57,2.58 112.81,1.57 110.35,1.27"/>
    </edge>
    <edge id=":J4_1" function="internal">
        <lane id=":J4_1_0" index="0" speed="10.99" length="27.06" shape="119.23,6.72 120.06,-1.34 122.77,-7.19 127.37,-10.82 133.86,-12.24"/>
        <lane id=":J4_1_1" index="1" speed="9.95" length="22.02" shape="122.43,6.68 123.08,-0.01 125.23,-4.87 128.86,-7.88 134.00,-9.05"/>
    </edge>
    <edge id=":J4_3" function="internal">
        <lane id=":J4_3_0" index="0" speed="7.48" length="11.98" shape="134.26,-2.65 131.84,-1.99 130.13,-0.22 129.13,2.64 128.83,6.60"/>
    </edge>
    <edge id=":J4_4" function="internal">
        <lane id=":J4_4_0" index="0" speed="13.89" length="24.08" shape="134.13,-5.85 127.89,-5.09 122.99,-3.83 117.70,-2.59 110.28,-1.93"/>
        <lane id=":J4_4_1" index="1" speed="13.89" length="24.08" shape="134.13,-5.85 110.21,-5.13"/>
    </edge>
    <edge id=":J4_6" function="internal">
        <lane id=":J4_6_0" index="0" speed="13.89" length="23.76" shape="110.01,-14.73 133.73,-15.44"/>
        <lane id=":J4_6_1" index="1" speed="13.89" length="23.76" shape="110.08,-11.53 133.86,-12.24"/>
    </edge>
    <edge id=":J4_8" function="internal">
        <lane id=":J4_8_0" index="0" speed="10.35" length="24.61" shape="110.15,-8.33 116.85,-7.52 121.66,-4.75 124.59,-0.03 125.63,6.64"/>
    </edge>
    <edge id=":J5_0" function="internal">
        <lane id=":J5_0_0" index="0" speed="7.31" length="11.65" shape="237.16,1.73 236.65,-2.06 235.49,-4.74 233.67,-6.30 231.20,-6.74"/>
    </edge>
    <edge id=":J5_1" function="internal">
        <lane id=":J5_1_0" index="0" speed="13.89" length="27.37" shape="240.36,1.59 240.49,-7.02 241.30,-13.41 242.13,-19.11 242.31,-25.66"/>
    </edge>
    <edge id=":J5_2" function="internal">
        <lane id=":J5_2_0" index="0" speed="10.42" length="24.54" shape="243.56,1.46 244.23,-5.19 246.88,-10.06 251.51,-13.16 258.12,-14.48"/>
    </edge>
    <edge id=":J5_3" function="internal">
        <lane id=":J5_3_0" index="0" speed="7.41" length="11.89" shape="258.66,-4.89 254.76,-4.32 252.01,-3.12 250.41,-1.28 249.95,1.19"/>
    </edge>
    <edge id=":J5_4" function="internal">
        <lane id=":J5_4_0" index="0" speed="13.89" length="27.53" shape="258.48,-8.09 249.81,-8.11 243.37,-8.88 237.63,-9.72 231.06,-9.94"/>
    </edge>
    <edge id=":J5_5" function="internal">
        <lane id=":J5_5_0" index="0" speed="10.34" length="24.56" shape="258.30,-11.28 251.58,-11.86 246.68,-14.44 243.59,-19.05 242.31,-25.66"/>
    </edge>
    <edge id=":J5_6" function="internal">
        <lane id=":J5_6_0" index="0" speed="7.30" length="11.70" shape="251.90,-26.13 252.44,-22.31 253.63,-19.63 255.46,-18.08 257.94,-17.67"/>
    </edge>
    <edge id=":J5_7" function="internal">
        <lane id=":J5_7_0" index="0" speed="13.89" length="27.41" shape="248.71,-25.97 248.62,-17.35 247.82,-10.95 246.97,-5.24 246.75,1.32"/>
    </edge>
    <edge id=":J5_8" function="internal">
        <lane id=":J5_8_0" index="0" speed="10.34" length="24.52" shape="245.51,-25.82 244.89,-19.11 242.27,-14.23 237.66,-11.17 231.06,-9.94"/>
    </edge>
    <edge id=":J5_9" function="internal">
        <lane id=":J5_9_0" index="0" speed="7.29" length="11.66" shape="230.66,-19.53 234.46,-20.04 237.14,-21.21 238.69,-23.03 239.12,-25.50"/>
    </edge>
    <edge id=":J5_10" function="internal">
        <lane id=":J5_10_0" index="0" speed="13.89" length="27.43" shape="230.79,-16.33 239.43,-16.21 245.84,-15.41 251.56,-14.61 258.12,-14.48"/>
    </edge>
    <edge id=":J5_11" function="internal">
        <lane id=":J5_11_0" index="0" speed="10.35" length="24.44" shape="230.93,-13.13 237.61,-12.47 242.48,-9.84 245.52,-5.24 246.75,1.32"/>
    </edge>

    <edge id="-E0" from="J1" to="J0" priority="-1">
        <lane id="-E0_0" index="0" speed="13.89" length="72.41" shape="33.45,-0.67 -38.96,-1.01"/>
        <lane id="-E0_1" index="1" speed="13.89" length="72.41" shape="33.46,-3.87 -38.94,-4.21"/>
    </edge>
    <edge id="-E1" from="J1" to="J2" priority="-1">
        <lane id="-E1_0" index="0" speed="13.89" length="60.85" shape="52.11,8.11 54.29,68.91"/>
        <lane id="-E1_1" index="1" speed="13.89" length="60.85" shape="48.91,8.22 51.10,69.03"/>
    </edge>
    <edge id="-E2" from="J3" to="J1" priority="-1">
        <lane id="-E2_0" index="0" speed="13.89" length="57.72" shape="51.73,-77.17 54.22,-19.51"/>
        <lane id="-E2_1" index="1" speed="13.89" length="57.72" shape="48.53,-77.03 51.02,-19.37"/>
        <lane id="-E2_2" index="2" speed="13.89" length="57.72" shape="45.33,-76.89 47.82,-19.23"/>
    </edge>
    <edge id="-E3" from="J4" to="J1" priority="-1">
        <lane id="-E3_0" index="0" speed="13.89" length="49.99" shape="110.35,1.27 60.37,2.31"/>
        <lane id="-E3_1" index="1" speed="13.89" length="49.99" shape="110.28,-1.93 60.31,-0.89"/>
        <lane id="-E3_2" index="2" speed="13.89" length="49.99" shape="110.21,-5.13 60.24,-4.09"/>
    </edge>
    <edge id="-E4" from="J5" to="J4" priority="-1">
        <lane id="-E4_0" index="0" speed="13.89" length="97.02" shape="231.20,-6.74 134.26,-2.65"/>
        <lane id="-E4_1" index="1" speed="13.89" length="97.02" shape="231.06,-9.94 134.13,-5.85"/>
    </edge>
    <edge id="-E5" from="J4" to="J6" priority="-1">
        <lane id="-E5_0" index="0" speed="13.89" length="62.29" shape="128.83,6.60 129.60,68.89"/>
        <lane id="-E5_1" index="1" speed="13.89" length="62.29" shape="125.63,6.64 126.40,68.93"/>
    </edge>
    <edge id="-E6" from="J7" to="J5" priority="-1">
        <lane id="-E6_0" index="0" speed="13.89" length="59.17" shape="239.67,60.85 237.16,1.73"/>
        <lane id="-E6_1" index="1" speed="13.89" length="59.17" shape="242.87,60.72 240.36,1.59"/>
        <lane id="-E6_2" index="2" speed="13.89" length="59.17" shape="246.06,60.58 243.56,1.46"/>
    </edge>
    <edge id="-E7" from="J8" to="J5" priority="-1">
        <lane id="-E7_0" index="0" speed="13.89" length="49.14" shape="249.49,-75.21 251.90,-26.13"/>
        <lane id="-E7_1" index="1" speed="13.89" length="49.14" shape="246.29,-75.05 248.71,-25.97"/>
        <lane id="-E7_2" index="2" speed="13.89" length="49.14" shape="243.10,-74.89 245.51,-25.82"/>
    </edge>
    <edge id="-E8" from="J9" to="J5" priority="-1">
        <lane id="-E8_0" index="0" speed="13.89" length="62.44" shape="321.00,-8.41 258.66,-4.89"/>
        <lane id="-E8_1" index="1" speed="13.89" length="62.44" shape="320.82,-11.60 258.48,-8.09"/>
        <lane id="-E8_2" index="2" speed="13.89" length="62.44" shape="320.64,-14.80 258.30,-11.28"/>
    </edge>
    <edge id="E0" from="J0" to="J1" priority="-1">
        <lane id="E0_0" index="0" speed="13.89" length="72.41" shape="-38.90,-13.81 33.51,-13.47"/>
        <lane id="E0_1" index="1" speed="13.89" length="72.41" shape="-38.91,-10.61 33.49,-10.27"/>
        <lane id="E0_2" index="2" speed="13.89" length="72.41" shape="-38.93,-7.41 33.48,-7.07"/>
    </edge>
    <edge id="E1" from="J2" to="J1" priority="-1">
        <lane id="E1_0" index="0" speed="13.89" length="60.85" shape="41.50,69.37 39.32,8.57"/>
        <lane id="E1_1" index="1" speed="13.89" length="60.85" shape="44.70,69.26 42.52,8.45"/>
        <lane id="E1_2" index="2" speed="13.89" length="60.85" shape="47.90,69.14 45.71,8.34"/>
    </edge>
    <edge id="E2" from="J1" to="J3" priority="-1">
        <lane id="E2_0" index="0" speed="13.89" length="57.72" shape="44.63,-19.09 42.14,-76.75"/>
    </edge>
    <edge id="E3" from="J1" to="J4" priority="-1">
        <lane id="E3_0" index="0" speed="13.89" length="49.99" shape="60.04,-13.69 110.01,-14.73"/>
        <lane id="E3_1" index="1" speed="13.89" length="49.99" shape="60.11,-10.49 110.08,-11.53"/>
        <lane id="E3_2" index="2" speed="13.89" length="49.99" shape="60.17,-7.29 110.15,-8.33"/>
    </edge>
    <edge id="E4" from="J4" to="J5" priority="-1">
        <lane id="E4_0" index="0" speed="13.89" length="97.02" shape="133.73,-15.44 230.66,-19.53"/>
        <lane id="E4_1" index="1" speed="13.89" length="97.02" shape="133.86,-12.24 230.79,-16.33"/>
        <lane id="E4_2" index="2" speed="13.89" length="97.02" shape="134.00,-9.05 230.93,-13.13"/>
    </edge>
    <edge id="E5" from="J6" to="J4" priority="-1">
        <lane id="E5_0" index="0" speed="13.89" length="62.29" shape="116.80,69.05 116.03,6.76"/>
        <lane id="E5_1" index="1" speed="13.89" length="62.29" shape="120.00,69.01 119.23,6.72"/>
        <lane id="E5_2" index="2" speed="13.89" length="62.29" shape="123.20,68.97 122.43,6.68"/>
    </edge>
    <edge id="E6" from="J5" to="J7" priority="-1">
        <lane id="E6_0" index="0" speed="13.89" length="59.17" shape="249.95,1.19 252.46,60.31"/>
        <lane id="E6_1" index="1" speed="13.89" length="59.17" shape="246.75,1.32 249.26,60.44"/>
    </edge>
    <edge id="E7" from="J5" to="J8" priority="-1">
        <lane id="E7_0" index="0" speed="13.89" length="49.14" shape="239.12,-25.50 236.71,-74.58"/>
        <lane id="E7_1" index="1" speed="13.89" length="49.14" shape="242.31,-25.66 239.90,-74.74"/>
    </edge>
    <edge id="E8" from="J5" to="J9" priority="-1">
        <lane id="E8_0" index="0" speed="13.89" length="62.44" shape="257.94,-17.67 320.28,-21.19"/>
        <lane id="E8_1" index="1" speed="13.89" length="62.44" shape="258.12,-14.48 320.46,-17.99"/>
    </edge>

    <tlLogic id="J1" type="static" programID="0" offset="0">
        <phase duration="33" state="GGrrrrGGrrrr"/>
        <phase duration="3"  state="yyrrrryyrrrr"/>
        <phase duration="6"  state="rrGrrrrrGrrr"/>
        <phase duration="3"  state="rryrrrrryrrr"/>
        <phase duration="33" state="rrrGGrGrrGGr"/>
        <phase duration="3"  state="rrryyryrryyr"/>
        <phase duration="6"  state="rrrrrGrrrrrG"/>
        <phase duration="3"  state="rrrrryrrrrry"/>
    </tlLogic>
    <tlLogic id="J4" type="static" programID="0" offset="0">
        <phase duration="20" state="GGGrrrrrr"/>
        <phase duration="3"  state="yyyrrrrrr"/>
        <phase duration="20" state="rrrrrrGGG"/>
        <phase duration="3"  state="rrrrrryyy"/>
        <phase duration="20" state="rrrGGGrrr"/>
        <phase duration="3"  state="rrryyyrrr"/>
    </tlLogic>
    <tlLogic id="J5" type="static" programID="0" offset="0">
        <phase duration="33" state="GGrrrrGGrrrr"/>
        <phase duration="3"  state="yyrrrryyrrrr"/>
        <phase duration="6"  state="rrGrrrrrGrrr"/>
        <phase duration="3"  state="rryrrrrryrrr"/>
        <phase duration="33" state="rrrGGrrrrGGr"/>
        <phase duration="3"  state="rrryyrrrryyr"/>
        <phase duration="6"  state="rrrrrGrrrrrG"/>
        <phase duration="3"  state="rrrrryrrrrry"/>
    </tlLogic>

    <junction id="J0" type="dead_end" x="-38.93" y="-5.81" incLanes="-E0_0 -E0_1" intLanes="" shape="-38.93,-5.81 -38.96,0.59 -38.93,-5.81"/>
    <junction id="J1" type="traffic_light" x="46.82" y="-5.41" incLanes="E1_0 E1_1 E1_2 -E3_0 -E3_1 -E3_2 -E2_0 -E2_1 -E2_2 E0_0 E0_1 E0_2" intLanes=":J1_0_0 :J1_1_0 :J1_2_0 :J1_3_0 :J1_4_0 :J1_5_0 :J1_6_0 :J1_7_0 :J1_8_0 :J1_9_0 :J1_10_0 :J1_11_0" shape="37.72,8.62 53.71,8.05 54.39,5.81 55.31,5.02 56.62,4.43 58.32,4.06 60.41,3.91 60.01,-15.29 57.76,-15.73 56.96,-16.32 56.37,-17.16 55.99,-18.24 55.82,-19.58 43.03,-19.02 42.05,-16.81 40.74,-16.04 38.88,-15.49 36.47,-15.17 33.52,-15.07 33.44,0.93 35.70,1.79 36.51,2.86 37.12,4.36 37.52,6.28">
        <request index="0"  response="000000000000" foes="000000000000" cont="0"/>
        <request index="1"  response="000000000000" foes="111100110000" cont="0"/>
        <request index="2"  response="000010000000" foes="100010110000" cont="0"/>
        <request index="3"  response="000010000000" foes="000010000000" cont="0"/>
        <request index="4"  response="000110000110" foes="100110000110" cont="0"/>
        <request index="5"  response="011110000110" foes="011110000110" cont="0"/>
        <request index="6"  response="000000000000" foes="000000000000" cont="0"/>
        <request index="7"  response="000000000000" foes="010000111100" cont="0"/>
        <request index="8"  response="000000000010" foes="110000110010" cont="0"/>
        <request index="9"  response="000000000010" foes="000000100010" cont="0"/>
        <request index="10" response="000110000010" foes="000110100010" cont="0"/>
        <request index="11" response="000100010110" foes="000100010110" cont="0"/>
    </junction>
    <junction id="J2" type="dead_end" x="49.50" y="69.09" incLanes="-E1_0 -E1_1" intLanes="" shape="49.50,69.09 55.89,68.86 49.50,69.09"/>
    <junction id="J3" type="dead_end" x="43.74" y="-76.82" incLanes="E2_0" intLanes="" shape="43.74,-76.82 40.54,-76.69 43.74,-76.82"/>
    <junction id="J4" type="traffic_light" x="123.86" y="-7.02" incLanes="E5_0 E5_1 E5_2 -E4_0 -E4_1 E3_0 E3_1 E3_2" intLanes=":J4_0_0 :J4_1_0 :J4_1_1 :J4_3_0 :J4_4_0 :J4_4_1 :J4_6_0 :J4_6_1 :J4_8_0" shape="114.43,6.78 130.43,6.58 130.51,4.30 130.82,2.42 131.36,0.94 132.12,-0.13 133.11,-0.79 134.33,-1.05 133.66,-17.04 109.98,-16.33 110.38,2.87 112.61,3.26 113.39,3.80 113.96,4.57 114.30,5.56">
        <request index="0" response="000000000" foes="000000000" cont="0"/>
        <request index="1" response="111110000" foes="111110000" cont="0"/>
        <request index="2" response="111110000" foes="111110000" cont="0"/>
        <request index="3" response="000000000" foes="000000000" cont="0"/>
        <request index="4" response="000000000" foes="100000110" cont="0"/>
        <request index="5" response="000000000" foes="100000110" cont="0"/>
        <request index="6" response="000000000" foes="000000110" cont="0"/>
        <request index="7" response="000000000" foes="000000110" cont="0"/>
        <request index="8" response="000110000" foes="000110110" cont="0"/>
    </junction>
    <junction id="J5" type="traffic_light" x="244.58" y="-12.11" incLanes="-E6_0 -E6_1 -E6_2 -E8_0 -E8_1 -E8_2 -E7_0 -E7_1 -E7_2 E4_0 E4_1 E4_2" intLanes=":J5_0_0 :J5_1_0 :J5_2_0 :J5_3_0 :J5_4_0 :J5_5_0 :J5_6_0 :J5_7_0 :J5_8_0 :J5_9_0 :J5_10_0 :J5_11_0" shape="235.56,1.80 251.55,1.12 252.27,-1.15 253.26,-1.98 254.67,-2.62 256.50,-3.05 258.75,-3.29 257.85,-19.27 255.59,-19.94 254.76,-20.89 254.14,-22.25 253.72,-24.02 253.50,-26.21 237.52,-25.42 236.84,-23.17 235.88,-22.35 234.53,-21.74 232.76,-21.33 230.59,-21.13 231.26,-5.14 233.52,-4.45 234.34,-3.49 234.95,-2.13 235.36,-0.37">
        <request index="0"  response="000000000000" foes="000000000000" cont="0"/>
        <request index="1"  response="000000000000" foes="110100110000" cont="0"/>
        <request index="2"  response="000010000000" foes="110010110000" cont="0"/>
        <request index="3"  response="000000000000" foes="000000000000" cont="0"/>
        <request index="4"  response="000110000110" foes="100110000110" cont="0"/>
        <request index="5"  response="010110000110" foes="010110000110" cont="0"/>
        <request index="6"  response="000000000000" foes="000000000000" cont="0"/>
        <request index="7"  response="000000000000" foes="110000110100" cont="0"/>
        <request index="8"  response="000000000010" foes="110000110010" cont="0"/>
        <request index="9"  response="000000000000" foes="000000000000" cont="0"/>
        <request index="10" response="000110000110" foes="000110100110" cont="0"/>
        <request index="11" response="000110010110" foes="000110010110" cont="0"/>
    </junction>
    <junction id="J6" type="dead_end" x="124.80" y="68.95" incLanes="-E5_0 -E5_1" intLanes="" shape="124.80,68.95 131.20,68.87 124.80,68.95"/>
    <junction id="J7" type="dead_end" x="247.66" y="60.51" incLanes="E6_0 E6_1" intLanes="" shape="247.66,60.51 254.06,60.24 247.66,60.51"/>
    <junction id="J8" type="dead_end" x="241.50" y="-74.81" incLanes="E7_0 E7_1" intLanes="" shape="241.50,-74.81 235.11,-74.50 241.50,-74.81"/>
    <junction id="J9" type="dead_end" x="320.55" y="-16.40" incLanes="E8_0 E8_1" intLanes="" shape="320.55,-16.40 320.19,-22.79 320.55,-16.40"/>

    <connection from="-E2" to="E3" fromLane="0" toLane="0" via=":J1_6_0" tl="J1" linkIndex="6" dir="r" state="O"/>
    <connection from="-E2" to="-E1" fromLane="1" toLane="0" via=":J1_7_0" tl="J1" linkIndex="7" dir="s" state="O"/>
    <connection from="-E2" to="-E0" fromLane="2" toLane="1" via=":J1_8_0" tl="J1" linkIndex="8" dir="l" state="o"/>
    <connection from="-E3" to="-E1" fromLane="0" toLane="0" via=":J1_3_0" tl="J1" linkIndex="3" dir="r" state="o"/>
    <connection from="-E3" to="-E0" fromLane="1" toLane="1" via=":J1_4_0" tl="J1" linkIndex="4" dir="s" state="o"/>
    <connection from="-E3" to="E2" fromLane="2" toLane="0" via=":J1_5_0" tl="J1" linkIndex="5" dir="l" state="o"/>
    <connection from="-E4" to="-E5" fromLane="0" toLane="0" via=":J4_3_0" tl="J4" linkIndex="3" dir="r" state="O"/>
    <connection from="-E4" to="-E3" fromLane="1" toLane="1" via=":J4_4_0" tl="J4" linkIndex="4" dir="s" state="O"/>
    <connection from="-E4" to="-E3" fromLane="1" toLane="2" via=":J4_4_1" tl="J4" linkIndex="5" dir="s" state="O"/>
    <connection from="-E6" to="-E4" fromLane="0" toLane="0" via=":J5_0_0" tl="J5" linkIndex="0" dir="r" state="O"/>
    <connection from="-E6" to="E7" fromLane="1" toLane="1" via=":J5_1_0" tl="J5" linkIndex="1" dir="s" state="O"/>
    <connection from="-E6" to="E8" fromLane="2" toLane="1" via=":J5_2_0" tl="J5" linkIndex="2" dir="l" state="o"/>
    <connection from="-E7" to="E8" fromLane="0" toLane="0" via=":J5_6_0" tl="J5" linkIndex="6" dir="r" state="O"/>
    <connection from="-E7" to="E6" fromLane="1" toLane="1" via=":J5_7_0" tl="J5" linkIndex="7" dir="s" state="O"/>
    <connection from="-E7" to="-E4" fromLane="2" toLane="1" via=":J5_8_0" tl="J5" linkIndex="8" dir="l" state="o"/>
    <connection from="-E8" to="E6" fromLane="0" toLane="0" via=":J5_3_0" tl="J5" linkIndex="3" dir="r" state="O"/>
    <connection from="-E8" to="-E4" fromLane="1" toLane="1" via=":J5_4_0" tl="J5" linkIndex="4" dir="s" state="o"/>
    <connection from="-E8" to="E7" fromLane="2" toLane="1" via=":J5_5_0" tl="J5" linkIndex="5" dir="l" state="o"/>
    <connection from="E0" to="E2" fromLane="0" toLane="0" via=":J1_9_0" tl="J1" linkIndex="9" dir="r" state="o"/>
    <connection from="E0" to="E3" fromLane="1" toLane="1" via=":J1_10_0" tl="J1" linkIndex="10" dir="s" state="o"/>
    <connection from="E0" to="-E1" fromLane="2" toLane="1" via=":J1_11_0" tl="J1" linkIndex="11" dir="l" state="o"/>
    <connection from="E1" to="-E0" fromLane="0" toLane="0" via=":J1_0_0" tl="J1" linkIndex="0" dir="r" state="O"/>
    <connection from="E1" to="E2" fromLane="1" toLane="0" via=":J1_1_0" tl="J1" linkIndex="1" dir="s" state="O"/>
    <connection from="E1" to="E3" fromLane="2" toLane="2" via=":J1_2_0" tl="J1" linkIndex="2" dir="l" state="o"/>
    <connection from="E3" to="E4" fromLane="0" toLane="0" via=":J4_6_0" tl="J4" linkIndex="6" dir="s" state="O"/>
    <connection from="E3" to="E4" fromLane="1" toLane="1" via=":J4_6_1" tl="J4" linkIndex="7" dir="s" state="O"/>
    <connection from="E3" to="-E5" fromLane="2" toLane="1" via=":J4_8_0" tl="J4" linkIndex="8" dir="l" state="o"/>
    <connection from="E4" to="E7" fromLane="0" toLane="0" via=":J5_9_0" tl="J5" linkIndex="9" dir="r" state="O"/>
    <connection from="E4" to="E8" fromLane="1" toLane="1" via=":J5_10_0" tl="J5" linkIndex="10" dir="s" state="o"/>
    <connection from="E4" to="E6" fromLane="2" toLane="1" via=":J5_11_0" tl="J5" linkIndex="11" dir="l" state="o"/>
    <connection from="E5" to="-E3" fromLane="0" toLane="0" via=":J4_0_0" tl="J4" linkIndex="0" dir="r" state="O"/>
    <connection from="E5" to="E4" fromLane="1" toLane="1" via=":J4_1_0" tl="J4" linkIndex="1" dir="l" state="o"/>
    <connection from="E5" to="E4" fromLane="2" toLane="2" via=":J4_1_1" tl="J4" linkIndex="2" dir="l" state="o"/>

    <connection from=":J1_0" to="-E0" fromLane="0" toLane="0" dir="r" state="M"/>
    <connection from=":J1_1" to="E2" fromLane="0" toLane="0" dir="s" state="M"/>
    <connection from=":J1_2" to="E3" fromLane="0" toLane="2" dir="l" state="M"/>
    <connection from=":J1_3" to="-E1" fromLane="0" toLane="0" dir="r" state="M"/>
    <connection from=":J1_4" to="-E0" fromLane="0" toLane="1" dir="s" state="M"/>
    <connection from=":J1_5" to="E2" fromLane="0" toLane="0" dir="l" state="M"/>
    <connection from=":J1_6" to="E3" fromLane="0" toLane="0" dir="r" state="M"/>
    <connection from=":J1_7" to="-E1" fromLane="0" toLane="0" dir="s" state="M"/>
    <connection from=":J1_8" to="-E0" fromLane="0" toLane="1" dir="l" state="M"/>
    <connection from=":J1_9" to="E2" fromLane="0" toLane="0" dir="r" state="M"/>
    <connection from=":J1_10" to="E3" fromLane="0" toLane="1" dir="s" state="M"/>
    <connection from=":J1_11" to="-E1" fromLane="0" toLane="1" dir="l" state="M"/>
    <connection from=":J4_0" to="-E3" fromLane="0" toLane="0" dir="r" state="M"/>
    <connection from=":J4_1" to="E4" fromLane="0" toLane="1" dir="l" state="M"/>
    <connection from=":J4_1" to="E4" fromLane="1" toLane="2" dir="l" state="M"/>
    <connection from=":J4_3" to="-E5" fromLane="0" toLane="0" dir="r" state="M"/>
    <connection from=":J4_4" to="-E3" fromLane="0" toLane="1" dir="s" state="M"/>
    <connection from=":J4_4" to="-E3" fromLane="1" toLane="2" dir="s" state="M"/>
    <connection from=":J4_6" to="E4" fromLane="0" toLane="0" dir="s" state="M"/>
    <connection from=":J4_6" to="E4" fromLane="1" toLane="1" dir="s" state="M"/>
    <connection from=":J4_8" to="-E5" fromLane="0" toLane="1" dir="l" state="M"/>
    <connection from=":J5_0" to="-E4" fromLane="0" toLane="0" dir="r" state="M"/>
    <connection from=":J5_1" to="E7" fromLane="0" toLane="1" dir="s" state="M"/>
    <connection from=":J5_2" to="E8" fromLane="0" toLane="1" dir="l" state="M"/>
    <connection from=":J5_3" to="E6" fromLane="0" toLane="0" dir="r" state="M"/>
    <connection from=":J5_4" to="-E4" fromLane="0" toLane="1" dir="s" state="M"/>
    <connection from=":J5_5" to="E7" fromLane="0" toLane="1" dir="l" state="M"/>
    <connection from=":J5_6" to="E8" fromLane="0" toLane="0" dir="r" state="M"/>
    <connection from=":J5_7" to="E6" fromLane="0" toLane="1" dir="s" state="M"/>
    <connection from=":J5_8" to="-E4" fromLane="0" toLane="1" dir="l" state="M"/>
    <connection from=":J5_9" to="E7" fromLane="0" toLane="0" dir="r" state="M"/>
    <connection from=":J5_10" to="E8" fromLane="0" toLane="1" dir="s" state="M"/>
    <connection from=":J5_11" to="E6" fromLane="0" toLane="1" dir="l" state="M"/>

</net>
