<?xml version="1.0" encoding="UTF-8"?>

<routes xmlns:xsi="http://www.w3.org/2001/XMLSchema-instance" xsi:noNamespaceSchemaLocation="http://sumo.dlr.de/xsd/routes_file.xsd">
    <vType id="ego" vClass="passenger" length="5.00" maxSpeed="15" color="10,191,255" tau="1.0"  minGap="1.0" accel="5" decel="5"/>
    <!-- aggressive HDVs -->
    <vType id="HDV_0" vClass="taxi" length="5.00" maxSpeed="15.00" color="112,100,78" tau="1.2"  minGap="1.0" accel="3.5" decel="5" carFollowModel="IDM" laneChangeModel="LC2013" lcOpposite="100" lcCooperative="0.1" lcSpeedGain="100" lcStrategic="100" lcKeepRight="100"/>
    
    <route id="route_0" edges="E0 E1 E2 E3" />

    <vehicle id="0" type="HDV_0" route="route_0" depart="0"/>
    <vehicle id="1" type="ego" route="route_0" depart="1"/>
    <vehicle id="2" type="HDV_0" route="route_0" depart="1"/>
    <vehicle id="3" type="HDV_0" route="route_0" depart="2"/>
    <vehicle id="4" type="HDV_0" route="route_0" depart="2"/>
    <vehicle id="5" type="HDV_0" route="route_0" depart="2"/>
    <vehicle id="6" type="HDV_0" route="route_0" depart="3"/>
    <vehicle id="7" type="HDV_0" route="route_0" depart="3"/>
    <vehicle id="8" type="HDV_0" route="route_0" depart="3"/>
    <vehicle id="9" type="HDV_0" route="route_0" depart="3"/>
</routes>