<?xml version="1.0" ?>
<configuration xmlns:xsi="http://www.w3.org/2001/XMLSchema-instance" xsi:noNamespaceSchemaLocation="http://sumo.dlr.de/xsd/sumoConfiguration.xsd">
   <input>
     <net-file value="veh.net.xml"/>
      <route-files value="bottleneck.rou.xml"/>
      <collision.action value="remove"/>
   </input>
   <time>
    <begin value="0"/>
    <end value="200"/>
    <step-length value="1"/>
   </time>
</configuration>
