<?xml version="1.0" encoding="UTF-8"?>

<!-- generated on 2024-04-19 15:15:09 by Eclipse SUMO netedit Version 1.19.0
<configuration xmlns:xsi="http://www.w3.org/2001/XMLSchema-instance" xsi:noNamespaceSchemaLocation="http://sumo.dlr.de/xsd/neteditConfiguration.xsd">

    <input>
        <sumo-net-file value="/home/liuzhengxuan/data/00_Code_Mine/MixedTrafficFlow/cooperation/bottleneck-develop/S2_Bottleneck/veh.net.xml"/>
    </input>

    <output>
        <output-file value="/home/liuzhengxuan/data/00_Code_Mine/MixedTrafficFlow/cooperation/bottleneck-develop/S2_Bottleneck/veh.net.xml"/>
    </output>

    <processing>
        <geometry.min-radius.fix.railways value="false"/>
        <geometry.max-grade.fix value="false"/>
        <offset.disable-normalization value="true"/>
        <lefthand value="0"/>
    </processing>

    <junctions>
        <no-turnarounds value="true"/>
        <junctions.corner-detail value="5"/>
        <junctions.limit-turn-speed value="5.50"/>
        <rectangular-lane-cut value="0"/>
    </junctions>

    <pedestrian>
        <walkingareas value="0"/>
    </pedestrian>

</configuration>
-->

<net version="1.16" junctionCornerDetail="5" limitTurnSpeed="5.50" xmlns:xsi="http://www.w3.org/2001/XMLSchema-instance" xsi:noNamespaceSchemaLocation="http://sumo.dlr.de/xsd/net_file.xsd">

    <location netOffset="0.00,0.00" convBoundary="0.00,0.00,700.10,0.10" origBoundary="-10000000000.00,-10000000000.00,10000000000.00,10000000000.00" projParameter="!"/>

    <edge id=":J1_0" function="internal">
        <lane id=":J1_0_0" index="0" speed="15.00" length="0.10" shape="250.00,-4.80 250.00,-4.80"/>
        <lane id=":J1_0_1" index="1" speed="15.00" length="0.10" shape="250.00,-1.60 250.00,-1.60"/>
        <lane id=":J1_0_2" index="2" speed="15.00" length="0.10" shape="250.00,1.60 250.00,1.60"/>
        <lane id=":J1_0_3" index="3" speed="15.00" length="0.10" shape="250.00,4.80 250.00,4.80"/>
    </edge>
    <edge id=":J2_0" function="internal">
        <lane id=":J2_0_0" index="0" speed="15.00" length="0.10" shape="400.00,-4.80 400.00,-4.80"/>
        <lane id=":J2_0_1" index="1" speed="15.00" length="0.10" shape="400.00,-1.60 400.00,-1.60"/>
        <lane id=":J2_0_2" index="2" speed="15.00" length="0.10" shape="400.00,1.60 400.00,1.60"/>
        <lane id=":J2_0_3" index="3" speed="15.00" length="0.10" shape="400.00,4.80 400.00,4.80"/>
    </edge>
    <edge id=":J3_0" function="internal">
        <lane id=":J3_0_0" index="0" speed="15.00" length="8.40" shape="496.00,-4.80 498.46,-4.30 500.00,-3.20 501.54,-2.10 504.00,-1.60"/>
        <lane id=":J3_0_1" index="1" speed="15.00" length="8.40" shape="496.00,-1.60 504.00,-1.60"/>
        <lane id=":J3_0_2" index="2" speed="15.00" length="8.40" shape="496.00,1.60 504.00,1.60"/>
        <lane id=":J3_0_3" index="3" speed="15.00" length="8.40" shape="496.00,4.80 498.46,4.30 500.00,3.20 501.54,2.10 504.00,1.60"/>
    </edge>

    <edge id="E0" from="J0" to="J1" priority="-1" spreadType="center">
        <lane id="E0_0" index="0" speed="15.00" length="250.00" shape="0.00,-4.80 250.00,-4.80"/>
        <lane id="E0_1" index="1" speed="15.00" length="250.00" shape="0.00,-1.60 250.00,-1.60"/>
        <lane id="E0_2" index="2" speed="15.00" length="250.00" shape="0.00,1.60 250.00,1.60"/>
        <lane id="E0_3" index="3" speed="15.00" length="250.00" shape="0.00,4.80 250.00,4.80"/>
    </edge>
    <edge id="E1" from="J1" to="J2" priority="-1" spreadType="center">
        <lane id="E1_0" index="0" speed="15.00" length="150.00" shape="250.00,-4.80 400.00,-4.80"/>
        <lane id="E1_1" index="1" speed="15.00" length="150.00" shape="250.00,-1.60 400.00,-1.60"/>
        <lane id="E1_2" index="2" speed="15.00" length="150.00" shape="250.00,1.60 400.00,1.60"/>
        <lane id="E1_3" index="3" speed="15.00" length="150.00" shape="250.00,4.80 400.00,4.80"/>
    </edge>
    <edge id="E2" from="J2" to="J3" priority="-1" spreadType="center" length="96.00">
        <lane id="E2_0" index="0" speed="15.00" length="96.00" shape="400.00,-4.80 496.00,-4.80"/>
        <lane id="E2_1" index="1" speed="15.00" length="96.00" shape="400.00,-1.60 496.00,-1.60"/>
        <lane id="E2_2" index="2" speed="15.00" length="96.00" shape="400.00,1.60 496.00,1.60"/>
        <lane id="E2_3" index="3" speed="15.00" length="96.00" shape="400.00,4.80 496.00,4.80"/>
    </edge>
    <edge id="E3" from="J3" to="J4" priority="-1" spreadType="center" shape="500.00,0.00 700.10,0.10">
        <lane id="E3_0" index="0" speed="15.00" length="196.00" shape="504.00,-1.60 700.00,-1.50"/>
        <lane id="E3_1" index="1" speed="15.00" length="196.00" shape="504.00,1.60 700.00,1.70"/>
    </edge>

    <junction id="J0" type="dead_end" x="0.00" y="0.00" incLanes="" intLanes="" shape="0.00,6.40 0.00,-6.40"/>
    <junction id="J1" type="priority" x="250.00" y="0.00" incLanes="E0_0 E0_1 E0_2 E0_3" intLanes=":J1_0_0 :J1_0_1 :J1_0_2 :J1_0_3" shape="250.00,6.40 250.00,-6.40 250.00,6.40">
        <request index="0" response="0000" foes="0000" cont="0"/>
        <request index="1" response="0000" foes="0000" cont="0"/>
        <request index="2" response="0000" foes="0000" cont="0"/>
        <request index="3" response="0000" foes="0000" cont="0"/>
    </junction>
    <junction id="J2" type="priority" x="400.00" y="0.00" incLanes="E1_0 E1_1 E1_2 E1_3" intLanes=":J2_0_0 :J2_0_1 :J2_0_2 :J2_0_3" shape="400.00,6.40 400.00,-6.40 400.00,6.40">
        <request index="0" response="0000" foes="0000" cont="0"/>
        <request index="1" response="0000" foes="0000" cont="0"/>
        <request index="2" response="0000" foes="0000" cont="0"/>
        <request index="3" response="0000" foes="0000" cont="0"/>
    </junction>
    <junction id="J3" type="priority" x="500.00" y="0.00" incLanes="E2_0 E2_1 E2_2 E2_3" intLanes=":J3_0_0 :J3_0_1 :J3_0_2 :J3_0_3" shape="504.00,3.20 504.00,-3.20 500.97,-4.03 499.03,-5.57 497.79,-6.16 496.00,-6.40 496.00,6.40 499.03,5.57 500.97,4.03 502.21,3.44">
        <request index="0" response="0010" foes="0010" cont="0"/>
        <request index="1" response="0000" foes="0001" cont="0"/>
        <request index="2" response="1000" foes="1000" cont="0"/>
        <request index="3" response="0000" foes="0100" cont="0"/>
    </junction>
    <junction id="J4" type="dead_end" x="700.00" y="0.00" incLanes="E3_0 E3_1" intLanes="" shape="700.00,-3.10 700.00,3.30"/>

    <connection from="E0" to="E1" fromLane="0" toLane="0" via=":J1_0_0" dir="s" state="M"/>
    <connection from="E0" to="E1" fromLane="1" toLane="1" via=":J1_0_1" dir="s" state="M"/>
    <connection from="E0" to="E1" fromLane="2" toLane="2" via=":J1_0_2" dir="s" state="M"/>
    <connection from="E0" to="E1" fromLane="3" toLane="3" via=":J1_0_3" dir="s" state="M"/>
    <connection from="E1" to="E2" fromLane="0" toLane="0" via=":J2_0_0" dir="s" state="M"/>
    <connection from="E1" to="E2" fromLane="1" toLane="1" via=":J2_0_1" dir="s" state="M"/>
    <connection from="E1" to="E2" fromLane="2" toLane="2" via=":J2_0_2" dir="s" state="M"/>
    <connection from="E1" to="E2" fromLane="3" toLane="3" via=":J2_0_3" dir="s" state="M"/>
    <connection from="E2" to="E3" fromLane="0" toLane="0" via=":J3_0_0" dir="s" state="m"/>
    <connection from="E2" to="E3" fromLane="1" toLane="0" via=":J3_0_1" dir="s" state="M"/>
    <connection from="E2" to="E3" fromLane="2" toLane="1" via=":J3_0_2" dir="s" state="M"/>
    <connection from="E2" to="E3" fromLane="3" toLane="1" via=":J3_0_3" dir="s" state="m"/>

    <connection from=":J1_0" to="E1" fromLane="0" toLane="0" dir="s" state="M"/>
    <connection from=":J1_0" to="E1" fromLane="1" toLane="1" dir="s" state="M"/>
    <connection from=":J1_0" to="E1" fromLane="2" toLane="2" dir="s" state="M"/>
    <connection from=":J1_0" to="E1" fromLane="3" toLane="3" dir="s" state="M"/>
    <connection from=":J2_0" to="E2" fromLane="0" toLane="0" dir="s" state="M"/>
    <connection from=":J2_0" to="E2" fromLane="1" toLane="1" dir="s" state="M"/>
    <connection from=":J2_0" to="E2" fromLane="2" toLane="2" dir="s" state="M"/>
    <connection from=":J2_0" to="E2" fromLane="3" toLane="3" dir="s" state="M"/>
    <connection from=":J3_0" to="E3" fromLane="0" toLane="0" dir="s" state="M"/>
    <connection from=":J3_0" to="E3" fromLane="1" toLane="0" dir="s" state="M"/>
    <connection from=":J3_0" to="E3" fromLane="2" toLane="1" dir="s" state="M"/>
    <connection from=":J3_0" to="E3" fromLane="3" toLane="1" dir="s" state="M"/>

</net>