<additional xmlns:xsi="http://www.w3.org/2001/XMLSchema-instance" xsi:noNamespaceSchemaLocation="http://sumo.dlr.de/xsd/additional_file.xsd">
    <e1Detector file="e1_internal.output.xml" freq="60" friendlyPos="x" id="e1det_internal--J1---E4---E4_0---E0_0--r" lane=":J1_0_0" pos="3"/>
    <e1Detector file="e1_internal.output.xml" freq="60" friendlyPos="x" id="e1det_internal--J1---E4---E4_0--E9_0--s" lane=":J1_1_0" pos="3"/>
    <e1Detector file="e1_internal.output.xml" freq="60" friendlyPos="x" id="e1det_internal--J1---E4---E4_1--E9_1--s" lane=":J1_1_1" pos="3"/>
    <e1Detector file="e1_internal.output.xml" freq="60" friendlyPos="x" id="e1det_internal--J1---E4---E4_2--E9_2--s" lane=":J1_1_2" pos="3"/>
    <e1Detector file="e1_internal.output.xml" freq="60" friendlyPos="x" id="e1det_internal--J1---E4---E4_2--E1_2--l" lane=":J1_4_0" pos="3"/>
    <e1Detector file="e1_internal.output.xml" freq="60" friendlyPos="x" id="e1det_internal--J1---E1---E1_0--E4_0--r" lane=":J1_5_0" pos="3"/>
    <e1Detector file="e1_internal.output.xml" freq="60" friendlyPos="x" id="e1det_internal--J1---E1---E1_0---E0_0--s" lane=":J1_6_0" pos="3"/>
    <e1Detector file="e1_internal.output.xml" freq="60" friendlyPos="x" id="e1det_internal--J1---E1---E1_1---E0_1--s" lane=":J1_6_1" pos="3"/>
    <e1Detector file="e1_internal.output.xml" freq="60" friendlyPos="x" id="e1det_internal--J1---E1---E1_2---E0_2--s" lane=":J1_6_2" pos="3"/>
    <e1Detector file="e1_internal.output.xml" freq="60" friendlyPos="x" id="e1det_internal--J1---E1---E1_2--E9_2--l" lane=":J1_9_0" pos="3"/>
    <e1Detector file="e1_internal.output.xml" freq="60" friendlyPos="x" id="e1det_internal--J1---E9---E9_0--E1_0--r" lane=":J1_10_0" pos="3"/>
    <e1Detector file="e1_internal.output.xml" freq="60" friendlyPos="x" id="e1det_internal--J1---E9---E9_0--E4_0--s" lane=":J1_11_0" pos="3"/>
    <e1Detector file="e1_internal.output.xml" freq="60" friendlyPos="x" id="e1det_internal--J1---E9---E9_1--E4_1--s" lane=":J1_11_1" pos="3"/>
    <e1Detector file="e1_internal.output.xml" freq="60" friendlyPos="x" id="e1det_internal--J1---E9---E9_2--E4_2--s" lane=":J1_11_2" pos="3"/>
    <e1Detector file="e1_internal.output.xml" freq="60" friendlyPos="x" id="e1det_internal--J1---E9---E9_2---E0_2--l" lane=":J1_14_0" pos="3"/>
    <e1Detector file="e1_internal.output.xml" freq="60" friendlyPos="x" id="e1det_internal--J1--E0--E0_0--E9_0--r" lane=":J1_15_0" pos="3"/>
    <e1Detector file="e1_internal.output.xml" freq="60" friendlyPos="x" id="e1det_internal--J1--E0--E0_0--E1_0--s" lane=":J1_16_0" pos="3"/>
    <e1Detector file="e1_internal.output.xml" freq="60" friendlyPos="x" id="e1det_internal--J1--E0--E0_1--E1_1--s" lane=":J1_16_1" pos="3"/>
    <e1Detector file="e1_internal.output.xml" freq="60" friendlyPos="x" id="e1det_internal--J1--E0--E0_2--E1_2--s" lane=":J1_16_2" pos="3"/>
    <e1Detector file="e1_internal.output.xml" freq="60" friendlyPos="x" id="e1det_internal--J1--E0--E0_2--E4_2--l" lane=":J1_19_0" pos="3"/>
    <e1Detector file="e1_internal.output.xml" freq="60" friendlyPos="x" id="e1det_internal--J2---E2---E2_0--E5_0--r" lane=":J2_0_0" pos="3"/>
    <e1Detector file="e1_internal.output.xml" freq="60" friendlyPos="x" id="e1det_internal--J2---E2---E2_0---E1_0--s" lane=":J2_1_0" pos="3"/>
    <e1Detector file="e1_internal.output.xml" freq="60" friendlyPos="x" id="e1det_internal--J2---E2---E2_1---E1_1--s" lane=":J2_1_1" pos="3"/>
    <e1Detector file="e1_internal.output.xml" freq="60" friendlyPos="x" id="e1det_internal--J2---E2---E2_2---E1_2--s" lane=":J2_1_2" pos="3"/>
    <e1Detector file="e1_internal.output.xml" freq="60" friendlyPos="x" id="e1det_internal--J2---E2---E2_2--E8_2--l" lane=":J2_4_0" pos="3"/>
    <e1Detector file="e1_internal.output.xml" freq="60" friendlyPos="x" id="e1det_internal--J2---E8---E8_0--E2_0--r" lane=":J2_5_0" pos="3"/>
    <e1Detector file="e1_internal.output.xml" freq="60" friendlyPos="x" id="e1det_internal--J2---E8---E8_0--E5_0--s" lane=":J2_6_0" pos="3"/>
    <e1Detector file="e1_internal.output.xml" freq="60" friendlyPos="x" id="e1det_internal--J2---E8---E8_1--E5_1--s" lane=":J2_6_1" pos="3"/>
    <e1Detector file="e1_internal.output.xml" freq="60" friendlyPos="x" id="e1det_internal--J2---E8---E8_2--E5_2--s" lane=":J2_6_2" pos="3"/>
    <e1Detector file="e1_internal.output.xml" freq="60" friendlyPos="x" id="e1det_internal--J2---E8---E8_2---E1_2--l" lane=":J2_9_0" pos="3"/>
    <e1Detector file="e1_internal.output.xml" freq="60" friendlyPos="x" id="e1det_internal--J2--E1--E1_0--E8_0--r" lane=":J2_10_0" pos="3"/>
    <e1Detector file="e1_internal.output.xml" freq="60" friendlyPos="x" id="e1det_internal--J2--E1--E1_0--E2_0--s" lane=":J2_11_0" pos="3"/>
    <e1Detector file="e1_internal.output.xml" freq="60" friendlyPos="x" id="e1det_internal--J2--E1--E1_1--E2_1--s" lane=":J2_11_1" pos="3"/>
    <e1Detector file="e1_internal.output.xml" freq="60" friendlyPos="x" id="e1det_internal--J2--E1--E1_2--E2_2--s" lane=":J2_11_2" pos="3"/>
    <e1Detector file="e1_internal.output.xml" freq="60" friendlyPos="x" id="e1det_internal--J2--E1--E1_2--E5_2--l" lane=":J2_14_0" pos="3"/>
    <e1Detector file="e1_internal.output.xml" freq="60" friendlyPos="x" id="e1det_internal--J2---E5---E5_0---E1_0--r" lane=":J2_15_0" pos="3"/>
    <e1Detector file="e1_internal.output.xml" freq="60" friendlyPos="x" id="e1det_internal--J2---E5---E5_0--E8_0--s" lane=":J2_16_0" pos="3"/>
    <e1Detector file="e1_internal.output.xml" freq="60" friendlyPos="x" id="e1det_internal--J2---E5---E5_1--E8_1--s" lane=":J2_16_1" pos="3"/>
    <e1Detector file="e1_internal.output.xml" freq="60" friendlyPos="x" id="e1det_internal--J2---E5---E5_2--E8_2--s" lane=":J2_16_2" pos="3"/>
    <e1Detector file="e1_internal.output.xml" freq="60" friendlyPos="x" id="e1det_internal--J2---E5---E5_2--E2_2--l" lane=":J2_19_0" pos="3"/>
    <e1Detector file="e1_internal.output.xml" freq="60" friendlyPos="x" id="e1det_internal--J3---E3---E3_0--E6_0--r" lane=":J3_0_0" pos="3"/>
    <e1Detector file="e1_internal.output.xml" freq="60" friendlyPos="x" id="e1det_internal--J3---E3---E3_0---E2_0--s" lane=":J3_1_0" pos="3"/>
    <e1Detector file="e1_internal.output.xml" freq="60" friendlyPos="x" id="e1det_internal--J3---E3---E3_1---E2_1--s" lane=":J3_1_1" pos="3"/>
    <e1Detector file="e1_internal.output.xml" freq="60" friendlyPos="x" id="e1det_internal--J3---E3---E3_2---E2_2--s" lane=":J3_1_2" pos="3"/>
    <e1Detector file="e1_internal.output.xml" freq="60" friendlyPos="x" id="e1det_internal--J3---E3---E3_2--E7_2--l" lane=":J3_4_0" pos="3"/>
    <e1Detector file="e1_internal.output.xml" freq="60" friendlyPos="x" id="e1det_internal--J3---E7---E7_0--E3_0--r" lane=":J3_5_0" pos="3"/>
    <e1Detector file="e1_internal.output.xml" freq="60" friendlyPos="x" id="e1det_internal--J3---E7---E7_0--E6_0--s" lane=":J3_6_0" pos="3"/>
    <e1Detector file="e1_internal.output.xml" freq="60" friendlyPos="x" id="e1det_internal--J3---E7---E7_1--E6_1--s" lane=":J3_6_1" pos="3"/>
    <e1Detector file="e1_internal.output.xml" freq="60" friendlyPos="x" id="e1det_internal--J3---E7---E7_2--E6_2--s" lane=":J3_6_2" pos="3"/>
    <e1Detector file="e1_internal.output.xml" freq="60" friendlyPos="x" id="e1det_internal--J3---E7---E7_2---E2_2--l" lane=":J3_9_0" pos="3"/>
    <e1Detector file="e1_internal.output.xml" freq="60" friendlyPos="x" id="e1det_internal--J3--E2--E2_0--E7_0--r" lane=":J3_10_0" pos="3"/>
    <e1Detector file="e1_internal.output.xml" freq="60" friendlyPos="x" id="e1det_internal--J3--E2--E2_0--E3_0--s" lane=":J3_11_0" pos="3"/>
    <e1Detector file="e1_internal.output.xml" freq="60" friendlyPos="x" id="e1det_internal--J3--E2--E2_1--E3_1--s" lane=":J3_11_1" pos="3"/>
    <e1Detector file="e1_internal.output.xml" freq="60" friendlyPos="x" id="e1det_internal--J3--E2--E2_2--E3_2--s" lane=":J3_11_2" pos="3"/>
    <e1Detector file="e1_internal.output.xml" freq="60" friendlyPos="x" id="e1det_internal--J3--E2--E2_2--E6_2--l" lane=":J3_14_0" pos="3"/>
    <e1Detector file="e1_internal.output.xml" freq="60" friendlyPos="x" id="e1det_internal--J3---E6---E6_0---E2_0--r" lane=":J3_15_0" pos="3"/>
    <e1Detector file="e1_internal.output.xml" freq="60" friendlyPos="x" id="e1det_internal--J3---E6---E6_0--E7_0--s" lane=":J3_16_0" pos="3"/>
    <e1Detector file="e1_internal.output.xml" freq="60" friendlyPos="x" id="e1det_internal--J3---E6---E6_1--E7_1--s" lane=":J3_16_1" pos="3"/>
    <e1Detector file="e1_internal.output.xml" freq="60" friendlyPos="x" id="e1det_internal--J3---E6---E6_2--E7_2--s" lane=":J3_16_2" pos="3"/>
    <e1Detector file="e1_internal.output.xml" freq="60" friendlyPos="x" id="e1det_internal--J3---E6---E6_2--E3_2--l" lane=":J3_19_0" pos="3"/>
</additional>
