<additional xmlns:xsi="http://www.w3.org/2001/XMLSchema-instance" xsi:noNamespaceSchemaLocation="http://sumo.dlr.de/xsd/additional_file.xsd">
    <e3Detector id="e3det--J1---E4---E0--r" freq="60" file="e3.output.xml" openEntry="true">
        <detEntry lane="-E4_0" pos="-1"/>
        <detExit lane="-E0_0" pos="1"/>
    </e3Detector>
    <e3Detector id="e3det--J1---E4--E9--s" freq="60" file="e3.output.xml" openEntry="true">
        <detEntry lane="-E4_0" pos="-1"/>
        <detExit lane="E9_0" pos="1"/>
        <detEntry lane="-E4_1" pos="-1"/>
        <detExit lane="E9_1" pos="1"/>
        <detEntry lane="-E4_2" pos="-1"/>
        <detExit lane="E9_2" pos="1"/>
    </e3Detector>
    <e3Detector id="e3det--J1---E4--E1--l" freq="60" file="e3.output.xml" openEntry="true">
        <detEntry lane="-E4_2" pos="-1"/>
        <detExit lane="E1_2" pos="1"/>
    </e3Detector>
    <e3Detector id="e3det--J1---E1--E4--r" freq="60" file="e3.output.xml" openEntry="true">
        <detEntry lane="-E1_0" pos="-1"/>
        <detExit lane="E4_0" pos="1"/>
    </e3Detector>
    <e3Detector id="e3det--J1---E1---E0--s" freq="60" file="e3.output.xml" openEntry="true">
        <detEntry lane="-E1_0" pos="-1"/>
        <detExit lane="-E0_0" pos="1"/>
        <detEntry lane="-E1_1" pos="-1"/>
        <detExit lane="-E0_1" pos="1"/>
        <detEntry lane="-E1_2" pos="-1"/>
        <detExit lane="-E0_2" pos="1"/>
    </e3Detector>
    <e3Detector id="e3det--J1---E1--E9--l" freq="60" file="e3.output.xml" openEntry="true">
        <detEntry lane="-E1_2" pos="-1"/>
        <detExit lane="E9_2" pos="1"/>
    </e3Detector>
    <e3Detector id="e3det--J1---E9--E1--r" freq="60" file="e3.output.xml" openEntry="true">
        <detEntry lane="-E9_0" pos="-1"/>
        <detExit lane="E1_0" pos="1"/>
    </e3Detector>
    <e3Detector id="e3det--J1---E9--E4--s" freq="60" file="e3.output.xml" openEntry="true">
        <detEntry lane="-E9_0" pos="-1"/>
        <detExit lane="E4_0" pos="1"/>
        <detEntry lane="-E9_1" pos="-1"/>
        <detExit lane="E4_1" pos="1"/>
        <detEntry lane="-E9_2" pos="-1"/>
        <detExit lane="E4_2" pos="1"/>
    </e3Detector>
    <e3Detector id="e3det--J1---E9---E0--l" freq="60" file="e3.output.xml" openEntry="true">
        <detEntry lane="-E9_2" pos="-1"/>
        <detExit lane="-E0_2" pos="1"/>
    </e3Detector>
    <e3Detector id="e3det--J1--E0--E9--r" freq="60" file="e3.output.xml" openEntry="true">
        <detEntry lane="E0_0" pos="-1"/>
        <detExit lane="E9_0" pos="1"/>
    </e3Detector>
    <e3Detector id="e3det--J1--E0--E1--s" freq="60" file="e3.output.xml" openEntry="true">
        <detEntry lane="E0_0" pos="-1"/>
        <detExit lane="E1_0" pos="1"/>
        <detEntry lane="E0_1" pos="-1"/>
        <detExit lane="E1_1" pos="1"/>
        <detEntry lane="E0_2" pos="-1"/>
        <detExit lane="E1_2" pos="1"/>
    </e3Detector>
    <e3Detector id="e3det--J1--E0--E4--l" freq="60" file="e3.output.xml" openEntry="true">
        <detEntry lane="E0_2" pos="-1"/>
        <detExit lane="E4_2" pos="1"/>
    </e3Detector>
    <e3Detector id="e3det--J2---E2--E5--r" freq="60" file="e3.output.xml" openEntry="true">
        <detEntry lane="-E2_0" pos="-1"/>
        <detExit lane="E5_0" pos="1"/>
    </e3Detector>
    <e3Detector id="e3det--J2---E2---E1--s" freq="60" file="e3.output.xml" openEntry="true">
        <detEntry lane="-E2_0" pos="-1"/>
        <detExit lane="-E1_0" pos="1"/>
        <detEntry lane="-E2_1" pos="-1"/>
        <detExit lane="-E1_1" pos="1"/>
        <detEntry lane="-E2_2" pos="-1"/>
        <detExit lane="-E1_2" pos="1"/>
    </e3Detector>
    <e3Detector id="e3det--J2---E2--E8--l" freq="60" file="e3.output.xml" openEntry="true">
        <detEntry lane="-E2_2" pos="-1"/>
        <detExit lane="E8_2" pos="1"/>
    </e3Detector>
    <e3Detector id="e3det--J2---E8--E2--r" freq="60" file="e3.output.xml" openEntry="true">
        <detEntry lane="-E8_0" pos="-1"/>
        <detExit lane="E2_0" pos="1"/>
    </e3Detector>
    <e3Detector id="e3det--J2---E8--E5--s" freq="60" file="e3.output.xml" openEntry="true">
        <detEntry lane="-E8_0" pos="-1"/>
        <detExit lane="E5_0" pos="1"/>
        <detEntry lane="-E8_1" pos="-1"/>
        <detExit lane="E5_1" pos="1"/>
        <detEntry lane="-E8_2" pos="-1"/>
        <detExit lane="E5_2" pos="1"/>
    </e3Detector>
    <e3Detector id="e3det--J2---E8---E1--l" freq="60" file="e3.output.xml" openEntry="true">
        <detEntry lane="-E8_2" pos="-1"/>
        <detExit lane="-E1_2" pos="1"/>
    </e3Detector>
    <e3Detector id="e3det--J2--E1--E8--r" freq="60" file="e3.output.xml" openEntry="true">
        <detEntry lane="E1_0" pos="-1"/>
        <detExit lane="E8_0" pos="1"/>
    </e3Detector>
    <e3Detector id="e3det--J2--E1--E2--s" freq="60" file="e3.output.xml" openEntry="true">
        <detEntry lane="E1_0" pos="-1"/>
        <detExit lane="E2_0" pos="1"/>
        <detEntry lane="E1_1" pos="-1"/>
        <detExit lane="E2_1" pos="1"/>
        <detEntry lane="E1_2" pos="-1"/>
        <detExit lane="E2_2" pos="1"/>
    </e3Detector>
    <e3Detector id="e3det--J2--E1--E5--l" freq="60" file="e3.output.xml" openEntry="true">
        <detEntry lane="E1_2" pos="-1"/>
        <detExit lane="E5_2" pos="1"/>
    </e3Detector>
    <e3Detector id="e3det--J2---E5---E1--r" freq="60" file="e3.output.xml" openEntry="true">
        <detEntry lane="-E5_0" pos="-1"/>
        <detExit lane="-E1_0" pos="1"/>
    </e3Detector>
    <e3Detector id="e3det--J2---E5--E8--s" freq="60" file="e3.output.xml" openEntry="true">
        <detEntry lane="-E5_0" pos="-1"/>
        <detExit lane="E8_0" pos="1"/>
        <detEntry lane="-E5_1" pos="-1"/>
        <detExit lane="E8_1" pos="1"/>
        <detEntry lane="-E5_2" pos="-1"/>
        <detExit lane="E8_2" pos="1"/>
    </e3Detector>
    <e3Detector id="e3det--J2---E5--E2--l" freq="60" file="e3.output.xml" openEntry="true">
        <detEntry lane="-E5_2" pos="-1"/>
        <detExit lane="E2_2" pos="1"/>
    </e3Detector>
    <e3Detector id="e3det--J3---E3--E6--r" freq="60" file="e3.output.xml" openEntry="true">
        <detEntry lane="-E3_0" pos="-1"/>
        <detExit lane="E6_0" pos="1"/>
    </e3Detector>
    <e3Detector id="e3det--J3---E3---E2--s" freq="60" file="e3.output.xml" openEntry="true">
        <detEntry lane="-E3_0" pos="-1"/>
        <detExit lane="-E2_0" pos="1"/>
        <detEntry lane="-E3_1" pos="-1"/>
        <detExit lane="-E2_1" pos="1"/>
        <detEntry lane="-E3_2" pos="-1"/>
        <detExit lane="-E2_2" pos="1"/>
    </e3Detector>
    <e3Detector id="e3det--J3---E3--E7--l" freq="60" file="e3.output.xml" openEntry="true">
        <detEntry lane="-E3_2" pos="-1"/>
        <detExit lane="E7_2" pos="1"/>
    </e3Detector>
    <e3Detector id="e3det--J3---E7--E3--r" freq="60" file="e3.output.xml" openEntry="true">
        <detEntry lane="-E7_0" pos="-1"/>
        <detExit lane="E3_0" pos="1"/>
    </e3Detector>
    <e3Detector id="e3det--J3---E7--E6--s" freq="60" file="e3.output.xml" openEntry="true">
        <detEntry lane="-E7_0" pos="-1"/>
        <detExit lane="E6_0" pos="1"/>
        <detEntry lane="-E7_1" pos="-1"/>
        <detExit lane="E6_1" pos="1"/>
        <detEntry lane="-E7_2" pos="-1"/>
        <detExit lane="E6_2" pos="1"/>
    </e3Detector>
    <e3Detector id="e3det--J3---E7---E2--l" freq="60" file="e3.output.xml" openEntry="true">
        <detEntry lane="-E7_2" pos="-1"/>
        <detExit lane="-E2_2" pos="1"/>
    </e3Detector>
    <e3Detector id="e3det--J3--E2--E7--r" freq="60" file="e3.output.xml" openEntry="true">
        <detEntry lane="E2_0" pos="-1"/>
        <detExit lane="E7_0" pos="1"/>
    </e3Detector>
    <e3Detector id="e3det--J3--E2--E3--s" freq="60" file="e3.output.xml" openEntry="true">
        <detEntry lane="E2_0" pos="-1"/>
        <detExit lane="E3_0" pos="1"/>
        <detEntry lane="E2_1" pos="-1"/>
        <detExit lane="E3_1" pos="1"/>
        <detEntry lane="E2_2" pos="-1"/>
        <detExit lane="E3_2" pos="1"/>
    </e3Detector>
    <e3Detector id="e3det--J3--E2--E6--l" freq="60" file="e3.output.xml" openEntry="true">
        <detEntry lane="E2_2" pos="-1"/>
        <detExit lane="E6_2" pos="1"/>
    </e3Detector>
    <e3Detector id="e3det--J3---E6---E2--r" freq="60" file="e3.output.xml" openEntry="true">
        <detEntry lane="-E6_0" pos="-1"/>
        <detExit lane="-E2_0" pos="1"/>
    </e3Detector>
    <e3Detector id="e3det--J3---E6--E7--s" freq="60" file="e3.output.xml" openEntry="true">
        <detEntry lane="-E6_0" pos="-1"/>
        <detExit lane="E7_0" pos="1"/>
        <detEntry lane="-E6_1" pos="-1"/>
        <detExit lane="E7_1" pos="1"/>
        <detEntry lane="-E6_2" pos="-1"/>
        <detExit lane="E7_2" pos="1"/>
    </e3Detector>
    <e3Detector id="e3det--J3---E6--E3--l" freq="60" file="e3.output.xml" openEntry="true">
        <detEntry lane="-E6_2" pos="-1"/>
        <detExit lane="E3_2" pos="1"/>
    </e3Detector>
</additional>
