<?xml version="1.0" ?>
<configuration xmlns:xsi="http://www.w3.org/2001/XMLSchema-instance" xsi:noNamespaceSchemaLocation="http://sumo.dlr.de/xsd/sumoConfiguration.xsd">
   <input>
      <net-file value="single_junction.net.xml"/>
      <route-files value="single_junction.rou.xml"/>
   </input>
</configuration>
