<?xml version="1.0" encoding="UTF-8"?>

<!-- generated on 2025-04-14 19:52:19 by Eclipse SUMO jtrrouter Version 1.22.0
<jtrrouterConfiguration xmlns:xsi="http://www.w3.org/2001/XMLSchema-instance" xsi:noNamespaceSchemaLocation="http://sumo.dlr.de/xsd/jtrrouterConfiguration.xsd">

    <input>
        <net-file value="/home/wmn/TransSimHub/examples/tshub_env3d/map_model_single/sumo_net/./single_junction.net.xml"/>
        <route-files value="/home/wmn/TransSimHub/examples/tshub_env3d/map_model_single/sumo_net/./testflow.trip.xml"/>
        <turn-ratio-files value="/home/wmn/TransSimHub/examples/tshub_env3d/map_model_single/sumo_net/./testflow.turndefs.xml"/>
    </input>

    <output>
        <output-file value="/home/wmn/TransSimHub/examples/tshub_env3d/map_model_single/sumo_net/./single_junction.rou.xml"/>
    </output>

    <processing>
        <randomize-flows value="True"/>
        <accept-all-destinations value="True"/>
    </processing>

    <defaults>
        <departlane value="random"/>
    </defaults>

    <report>
        <no-warnings value="true"/>
    </report>

    <random_number>
        <seed value="777"/>
    </random_number>

</jtrrouterConfiguration>
-->

<routes xmlns:xsi="http://www.w3.org/2001/XMLSchema-instance" xsi:noNamespaceSchemaLocation="http://sumo.dlr.de/xsd/routes_file.xsd">
    <vType id="background" length="5.00" color="220,220,220" tau="1.0"/>
    <vehicle id="E0__0__background.0" type="background" depart="0.84" departLane="random">
        <route edges="E0 E1"/>
    </vehicle>
    <vehicle id="-E1__0__background.0" type="background" depart="3.58" departLane="random">
        <route edges="-E1 E3"/>
    </vehicle>
    <vType id="taxi" length="5.00" color="yellow" tau="1.0"/>
    <vehicle id="E0__0__taxi.0" type="taxi" depart="4.16" departLane="random">
        <route edges="E0 -E2"/>
    </vehicle>
    <vehicle id="-E3__0__taxi.0" type="taxi" depart="5.68" departLane="random">
        <route edges="-E3 -E2"/>
    </vehicle>
    <vehicle id="-E1__0__background.1" type="background" depart="6.54" departLane="random">
        <route edges="-E1 -E0"/>
    </vehicle>
    <vType id="police" length="5.00" color="blue" tau="1.0"/>
    <vehicle id="-E1__0__police.0" type="police" depart="6.80" departLane="random">
        <route edges="-E1 -E0"/>
    </vehicle>
    <vehicle id="-E3__0__background.0" type="background" depart="7.71" departLane="random">
        <route edges="-E3 -E0"/>
    </vehicle>
    <vehicle id="-E3__0__background.1" type="background" depart="10.82" departLane="random">
        <route edges="-E3 -E0"/>
    </vehicle>
    <vType id="emergency" length="6.50" color="255,165,0" tau="1.0"/>
    <vehicle id="E2__0__emergency.0" type="emergency" depart="10.88" departLane="random">
        <route edges="E2 -E0"/>
    </vehicle>
    <vehicle id="-E1__0__background.2" type="background" depart="11.03" departLane="random">
        <route edges="-E1 -E0"/>
    </vehicle>
    <vehicle id="-E1__0__emergency.0" type="emergency" depart="12.32" departLane="random">
        <route edges="-E1 E3"/>
    </vehicle>
    <vehicle id="E0__0__background.1" type="background" depart="15.68" departLane="random">
        <route edges="E0 E1"/>
    </vehicle>
    <vehicle id="E2__0__background.0" type="background" depart="15.93" departLane="random">
        <route edges="E2 E3"/>
    </vehicle>
    <vehicle id="E0__0__background.2" type="background" depart="16.75" departLane="random">
        <route edges="E0 -E2"/>
    </vehicle>
    <vehicle id="-E1__0__background.3" type="background" depart="17.37" departLane="random">
        <route edges="-E1 -E0"/>
    </vehicle>
    <vehicle id="-E3__0__background.2" type="background" depart="19.28" departLane="random">
        <route edges="-E3 -E2"/>
    </vehicle>
    <vType id="fire_engine" length="7.10" color="red" tau="1.0"/>
    <vehicle id="-E1__0__fire_engine.0" type="fire_engine" depart="20.32" departLane="random">
        <route edges="-E1 E3"/>
    </vehicle>
    <vehicle id="E0__0__police.0" type="police" depart="23.35" departLane="random">
        <route edges="E0 E1"/>
    </vehicle>
    <vehicle id="-E1__0__background.4" type="background" depart="25.90" departLane="random">
        <route edges="-E1 -E2"/>
    </vehicle>
    <vehicle id="E2__0__background.1" type="background" depart="26.70" departLane="random">
        <route edges="E2 -E0"/>
    </vehicle>
    <vehicle id="-E1__0__taxi.0" type="taxi" depart="26.95" departLane="random">
        <route edges="-E1 -E0"/>
    </vehicle>
    <vehicle id="E2__0__fire_engine.0" type="fire_engine" depart="28.79" departLane="random">
        <route edges="E2 E3"/>
    </vehicle>
    <vehicle id="-E3__0__emergency.0" type="emergency" depart="35.91" departLane="random">
        <route edges="-E3 -E2"/>
    </vehicle>
    <vehicle id="E2__0__background.2" type="background" depart="36.79" departLane="random">
        <route edges="E2 -E0"/>
    </vehicle>
    <vehicle id="E2__0__background.3" type="background" depart="40.54" departLane="random">
        <route edges="E2 -E0"/>
    </vehicle>
    <vehicle id="-E1__0__background.5" type="background" depart="40.85" departLane="random">
        <route edges="-E1 -E0"/>
    </vehicle>
    <vehicle id="-E3__0__background.3" type="background" depart="41.30" departLane="random">
        <route edges="-E3 E1"/>
    </vehicle>
    <vehicle id="E2__0__taxi.0" type="taxi" depart="44.46" departLane="random">
        <route edges="E2 -E0"/>
    </vehicle>
    <vehicle id="E0__0__background.3" type="background" depart="46.02" departLane="random">
        <route edges="E0 E1"/>
    </vehicle>
    <vehicle id="E2__0__background.4" type="background" depart="47.92" departLane="random">
        <route edges="E2 E3"/>
    </vehicle>
    <vehicle id="-E3__0__police.0" type="police" depart="48.23" departLane="random">
        <route edges="-E3 E1"/>
    </vehicle>
    <vehicle id="E0__0__emergency.0" type="emergency" depart="51.52" departLane="random">
        <route edges="E0 E3"/>
    </vehicle>
    <vehicle id="E2__0__background.5" type="background" depart="52.13" departLane="random">
        <route edges="E2 E1"/>
    </vehicle>
    <vehicle id="E0__0__fire_engine.0" type="fire_engine" depart="53.45" departLane="random">
        <route edges="E0 -E2"/>
    </vehicle>
    <vehicle id="E2__0__police.0" type="police" depart="54.94" departLane="random">
        <route edges="E2 E1"/>
    </vehicle>
    <vehicle id="-E3__0__fire_engine.0" type="fire_engine" depart="56.15" departLane="random">
        <route edges="-E3 -E0"/>
    </vehicle>
    <vehicle id="-E1__1__police.0" type="police" depart="60.03" departLane="random">
        <route edges="-E1 E3"/>
    </vehicle>
    <vehicle id="E0__1__background.0" type="background" depart="61.54" departLane="random">
        <route edges="E0 E1"/>
    </vehicle>
    <vehicle id="E0__1__police.0" type="police" depart="63.43" departLane="random">
        <route edges="E0 E3"/>
    </vehicle>
    <vehicle id="-E1__1__background.0" type="background" depart="64.54" departLane="random">
        <route edges="-E1 E3"/>
    </vehicle>
    <vehicle id="E2__1__background.0" type="background" depart="65.99" departLane="random">
        <route edges="E2 E3"/>
    </vehicle>
    <vehicle id="E2__1__background.1" type="background" depart="67.95" departLane="random">
        <route edges="E2 E3"/>
    </vehicle>
    <vehicle id="-E1__1__taxi.0" type="taxi" depart="69.31" departLane="random">
        <route edges="-E1 -E0"/>
    </vehicle>
    <vehicle id="-E3__1__background.0" type="background" depart="71.26" departLane="random">
        <route edges="-E3 -E2"/>
    </vehicle>
    <vehicle id="E0__1__fire_engine.0" type="fire_engine" depart="72.41" departLane="random">
        <route edges="E0 -E2"/>
    </vehicle>
    <vehicle id="E0__1__emergency.0" type="emergency" depart="73.67" departLane="random">
        <route edges="E0 E1"/>
    </vehicle>
    <vehicle id="-E3__1__background.1" type="background" depart="75.08" departLane="random">
        <route edges="-E3 -E2"/>
    </vehicle>
    <vehicle id="-E3__1__taxi.0" type="taxi" depart="75.59" departLane="random">
        <route edges="-E3 -E0"/>
    </vehicle>
    <vehicle id="E0__1__background.1" type="background" depart="76.46" departLane="random">
        <route edges="E0 E1"/>
    </vehicle>
    <vehicle id="-E3__1__emergency.0" type="emergency" depart="78.84" departLane="random">
        <route edges="-E3 E1"/>
    </vehicle>
    <vehicle id="E0__1__taxi.0" type="taxi" depart="80.50" departLane="random">
        <route edges="E0 -E2"/>
    </vehicle>
    <vehicle id="E2__1__police.0" type="police" depart="85.22" departLane="random">
        <route edges="E2 -E0"/>
    </vehicle>
    <vehicle id="-E1__1__background.1" type="background" depart="86.23" departLane="random">
        <route edges="-E1 E3"/>
    </vehicle>
    <vehicle id="-E1__1__background.2" type="background" depart="86.40" departLane="random">
        <route edges="-E1 E3"/>
    </vehicle>
    <vehicle id="E2__1__background.2" type="background" depart="88.29" departLane="random">
        <route edges="E2 E3"/>
    </vehicle>
    <vehicle id="-E3__1__fire_engine.0" type="fire_engine" depart="89.83" departLane="random">
        <route edges="-E3 -E2"/>
    </vehicle>
    <vehicle id="-E1__1__background.3" type="background" depart="90.89" departLane="random">
        <route edges="-E1 -E0"/>
    </vehicle>
    <vehicle id="E2__1__fire_engine.0" type="fire_engine" depart="91.08" departLane="random">
        <route edges="E2 E3"/>
    </vehicle>
    <vehicle id="E2__1__background.3" type="background" depart="93.66" departLane="random">
        <route edges="E2 E1"/>
    </vehicle>
    <vehicle id="E2__1__taxi.0" type="taxi" depart="99.15" departLane="random">
        <route edges="E2 E3"/>
    </vehicle>
    <vehicle id="E0__1__background.2" type="background" depart="102.87" departLane="random">
        <route edges="E0 -E2"/>
    </vehicle>
    <vehicle id="E2__1__background.4" type="background" depart="103.19" departLane="random">
        <route edges="E2 E3"/>
    </vehicle>
    <vehicle id="-E3__1__police.0" type="police" depart="103.28" departLane="random">
        <route edges="-E3 E1"/>
    </vehicle>
    <vehicle id="E0__1__background.3" type="background" depart="105.90" departLane="random">
        <route edges="E0 E3"/>
    </vehicle>
    <vehicle id="E2__1__background.5" type="background" depart="106.02" departLane="random">
        <route edges="E2 E3"/>
    </vehicle>
    <vehicle id="E2__1__emergency.0" type="emergency" depart="108.14" departLane="random">
        <route edges="E2 E3"/>
    </vehicle>
    <vehicle id="-E1__1__emergency.0" type="emergency" depart="109.14" departLane="random">
        <route edges="-E1 E3"/>
    </vehicle>
    <vehicle id="-E3__1__background.2" type="background" depart="111.42" departLane="random">
        <route edges="-E3 -E0"/>
    </vehicle>
    <vehicle id="-E3__1__background.3" type="background" depart="113.47" departLane="random">
        <route edges="-E3 -E0"/>
    </vehicle>
    <vehicle id="-E1__1__fire_engine.0" type="fire_engine" depart="114.52" departLane="random">
        <route edges="-E1 -E0"/>
    </vehicle>
    <vehicle id="-E1__1__background.4" type="background" depart="117.89" departLane="random">
        <route edges="-E1 E3"/>
    </vehicle>
    <vehicle id="-E1__1__background.5" type="background" depart="119.78" departLane="random">
        <route edges="-E1 -E0"/>
    </vehicle>
    <vehicle id="-E1__2__emergency.0" type="emergency" depart="120.09" departLane="random">
        <route edges="-E1 E3"/>
    </vehicle>
    <vehicle id="-E1__2__fire_engine.0" type="fire_engine" depart="120.19" departLane="random">
        <route edges="-E1 -E0"/>
    </vehicle>
    <vehicle id="E2__2__police.0" type="police" depart="121.72" departLane="random">
        <route edges="E2 E1"/>
    </vehicle>
    <vehicle id="E2__2__background.0" type="background" depart="123.47" departLane="random">
        <route edges="E2 E1"/>
    </vehicle>
    <vehicle id="-E3__2__background.0" type="background" depart="124.84" departLane="random">
        <route edges="-E3 -E2"/>
    </vehicle>
    <vehicle id="E2__2__background.1" type="background" depart="130.17" departLane="random">
        <route edges="E2 -E0"/>
    </vehicle>
    <vehicle id="E2__2__background.2" type="background" depart="132.29" departLane="random">
        <route edges="E2 E1"/>
    </vehicle>
    <vehicle id="-E1__2__background.0" type="background" depart="134.01" departLane="random">
        <route edges="-E1 -E0"/>
    </vehicle>
    <vehicle id="E0__2__taxi.0" type="taxi" depart="134.36" departLane="random">
        <route edges="E0 E3"/>
    </vehicle>
    <vehicle id="E0__2__police.0" type="police" depart="136.26" departLane="random">
        <route edges="E0 E3"/>
    </vehicle>
    <vehicle id="E2__2__background.3" type="background" depart="136.73" departLane="random">
        <route edges="E2 E3"/>
    </vehicle>
    <vehicle id="-E1__2__background.1" type="background" depart="143.16" departLane="random">
        <route edges="-E1 -E0"/>
    </vehicle>
    <vehicle id="E0__2__background.0" type="background" depart="144.69" departLane="random">
        <route edges="E0 -E2"/>
    </vehicle>
    <vehicle id="-E3__2__background.1" type="background" depart="145.80" departLane="random">
        <route edges="-E3 -E2"/>
    </vehicle>
    <vehicle id="-E1__2__background.2" type="background" depart="145.86" departLane="random">
        <route edges="-E1 -E0"/>
    </vehicle>
    <vehicle id="E2__2__emergency.0" type="emergency" depart="147.35" departLane="random">
        <route edges="E2 E3"/>
    </vehicle>
    <vehicle id="-E1__2__police.0" type="police" depart="151.85" departLane="random">
        <route edges="-E1 E3"/>
    </vehicle>
    <vehicle id="-E1__2__background.3" type="background" depart="155.70" departLane="random">
        <route edges="-E1 -E2"/>
    </vehicle>
    <vehicle id="E0__2__emergency.0" type="emergency" depart="157.85" departLane="random">
        <route edges="E0 E1"/>
    </vehicle>
    <vehicle id="E2__2__background.4" type="background" depart="157.85" departLane="random">
        <route edges="E2 E3"/>
    </vehicle>
    <vehicle id="-E1__2__taxi.0" type="taxi" depart="159.52" departLane="random">
        <route edges="-E1 -E0"/>
    </vehicle>
    <vehicle id="E0__2__background.1" type="background" depart="159.82" departLane="random">
        <route edges="E0 E1"/>
    </vehicle>
    <vehicle id="-E3__2__background.2" type="background" depart="162.11" departLane="random">
        <route edges="-E3 -E2"/>
    </vehicle>
    <vehicle id="-E3__2__emergency.0" type="emergency" depart="162.53" departLane="random">
        <route edges="-E3 -E2"/>
    </vehicle>
    <vehicle id="-E3__2__police.0" type="police" depart="163.32" departLane="random">
        <route edges="-E3 -E0"/>
    </vehicle>
    <vehicle id="-E3__2__taxi.0" type="taxi" depart="163.99" departLane="random">
        <route edges="-E3 -E2"/>
    </vehicle>
    <vehicle id="E0__2__background.2" type="background" depart="164.08" departLane="random">
        <route edges="E0 E1"/>
    </vehicle>
    <vehicle id="E2__2__fire_engine.0" type="fire_engine" depart="164.98" departLane="random">
        <route edges="E2 -E0"/>
    </vehicle>
    <vehicle id="-E3__2__fire_engine.0" type="fire_engine" depart="165.08" departLane="random">
        <route edges="-E3 -E2"/>
    </vehicle>
    <vehicle id="E0__2__background.3" type="background" depart="167.20" departLane="random">
        <route edges="E0 E1"/>
    </vehicle>
    <vehicle id="E2__2__taxi.0" type="taxi" depart="167.92" departLane="random">
        <route edges="E2 E3"/>
    </vehicle>
    <vehicle id="-E1__2__background.4" type="background" depart="170.44" departLane="random">
        <route edges="-E1 E3"/>
    </vehicle>
    <vehicle id="E2__2__background.5" type="background" depart="170.49" departLane="random">
        <route edges="E2 E1"/>
    </vehicle>
    <vehicle id="-E1__2__background.5" type="background" depart="172.24" departLane="random">
        <route edges="-E1 -E0"/>
    </vehicle>
    <vehicle id="E0__2__fire_engine.0" type="fire_engine" depart="173.82" departLane="random">
        <route edges="E0 E1"/>
    </vehicle>
    <vehicle id="-E3__2__background.3" type="background" depart="178.72" departLane="random">
        <route edges="-E3 -E2"/>
    </vehicle>
</routes>
