<additional xmlns:xsi="http://www.w3.org/2001/XMLSchema-instance" xsi:noNamespaceSchemaLocation="http://sumo.dlr.de/xsd/additional_file.xsd">
    <laneAreaDetector file="e2.output.xml" freq="60" friendlyPos="x" id="e2det--25663405---23755720#5---23755720#5_0--rs" lane="-23755720#5_0" pos="59.88999999999999" length="50"/>
    <laneAreaDetector file="e2.output.xml" freq="60" friendlyPos="x" id="e2det--25663405---23755720#5---23755720#5_1--slt" lane="-23755720#5_1" pos="59.88999999999999" length="50"/>
    <laneAreaDetector file="e2.output.xml" freq="60" friendlyPos="x" id="e2det--25663405---1151333062#1---1151333062#1_0--rs" lane="-1151333062#1_0" pos="26.440000000000005" length="50"/>
    <laneAreaDetector file="e2.output.xml" freq="60" friendlyPos="x" id="e2det--25663405---1151333062#1---1151333062#1_1--slt" lane="-1151333062#1_1" pos="26.440000000000005" length="50"/>
    <laneAreaDetector file="e2.output.xml" freq="60" friendlyPos="x" id="e2det--25663405--65040946#0--65040946#0_0--rs" lane="65040946#0_0" pos="49.49" length="50"/>
    <laneAreaDetector file="e2.output.xml" freq="60" friendlyPos="x" id="e2det--25663405--65040946#0--65040946#0_1--slt" lane="65040946#0_1" pos="49.49" length="50"/>
    <laneAreaDetector file="e2.output.xml" freq="60" friendlyPos="x" id="e2det--25663405---1132167366---1132167366_0--rs" lane="-1132167366_0" pos="17.729999999999997" length="50"/>
    <laneAreaDetector file="e2.output.xml" freq="60" friendlyPos="x" id="e2det--25663405---1132167366---1132167366_1--slt" lane="-1132167366_1" pos="17.729999999999997" length="50"/>
    <laneAreaDetector file="e2.output.xml" freq="60" friendlyPos="x" id="e2det--25663436---23755718#2---23755718#2_0--s" lane="-23755718#2_0" pos="143.86" length="50"/>
    <laneAreaDetector file="e2.output.xml" freq="60" friendlyPos="x" id="e2det--25663436---23755718#2---23755718#2_1--slt" lane="-23755718#2_1" pos="143.86" length="50"/>
    <laneAreaDetector file="e2.output.xml" freq="60" friendlyPos="x" id="e2det--25663436---327756257#0---327756257#0_0--rl" lane="-327756257#0_0" pos="26.79" length="50"/>
    <laneAreaDetector file="e2.output.xml" freq="60" friendlyPos="x" id="e2det--25663436---327756257#0---327756257#0_1--lt" lane="-327756257#0_1" pos="26.79" length="50"/>
    <laneAreaDetector file="e2.output.xml" freq="60" friendlyPos="x" id="e2det--25663436--23755720#0--23755720#0_0--rs" lane="23755720#0_0" pos="60.059999999999995" length="50"/>
    <laneAreaDetector file="e2.output.xml" freq="60" friendlyPos="x" id="e2det--25663436--23755720#0--23755720#0_1--st" lane="23755720#0_1" pos="60.059999999999995" length="50"/>
    <laneAreaDetector file="e2.output.xml" freq="60" friendlyPos="x" id="e2det--25663407---24242838#5---24242838#5_0--rs" lane="-24242838#5_0" pos="60.550000000000004" length="50"/>
    <laneAreaDetector file="e2.output.xml" freq="60" friendlyPos="x" id="e2det--25663407---24242838#5---24242838#5_1--slt" lane="-24242838#5_1" pos="60.550000000000004" length="50"/>
    <laneAreaDetector file="e2.output.xml" freq="60" friendlyPos="x" id="e2det--25663407---23755731#2---23755731#2_0--rs" lane="-23755731#2_0" pos="28.15" length="50"/>
    <laneAreaDetector file="e2.output.xml" freq="60" friendlyPos="x" id="e2det--25663407---23755731#2---23755731#2_1--slt" lane="-23755731#2_1" pos="28.15" length="50"/>
    <laneAreaDetector file="e2.output.xml" freq="60" friendlyPos="x" id="e2det--25663407--24242838#0--24242838#0_0--rs" lane="24242838#0_0" pos="70.62" length="50"/>
    <laneAreaDetector file="e2.output.xml" freq="60" friendlyPos="x" id="e2det--25663407--24242838#0--24242838#0_1--slt" lane="24242838#0_1" pos="70.62" length="50"/>
    <laneAreaDetector file="e2.output.xml" freq="60" friendlyPos="x" id="e2det--25663407--1151333062#0--1151333062#0_0--rs" lane="1151333062#0_0" pos="26.380000000000003" length="50"/>
    <laneAreaDetector file="e2.output.xml" freq="60" friendlyPos="x" id="e2det--25663407--1151333062#0--1151333062#0_1--slt" lane="1151333062#0_1" pos="26.380000000000003" length="50"/>
    <laneAreaDetector file="e2.output.xml" freq="60" friendlyPos="x" id="e2det--25663429---1105574288#1---1105574288#1_0--rs" lane="-1105574288#1_0" pos="143.55" length="50"/>
    <laneAreaDetector file="e2.output.xml" freq="60" friendlyPos="x" id="e2det--25663429---1105574288#1---1105574288#1_1--slt" lane="-1105574288#1_1" pos="143.55" length="50"/>
    <laneAreaDetector file="e2.output.xml" freq="60" friendlyPos="x" id="e2det--25663429---327756257#1---327756257#1_0--rs" lane="-327756257#1_0" pos="27.309999999999995" length="50"/>
    <laneAreaDetector file="e2.output.xml" freq="60" friendlyPos="x" id="e2det--25663429---327756257#1---327756257#1_1--slt" lane="-327756257#1_1" pos="27.309999999999995" length="50"/>
    <laneAreaDetector file="e2.output.xml" freq="60" friendlyPos="x" id="e2det--25663429--24242838#5--24242838#5_0--rs" lane="24242838#5_0" pos="60.550000000000004" length="50"/>
    <laneAreaDetector file="e2.output.xml" freq="60" friendlyPos="x" id="e2det--25663429--24242838#5--24242838#5_1--slt" lane="24242838#5_1" pos="60.550000000000004" length="50"/>
    <laneAreaDetector file="e2.output.xml" freq="60" friendlyPos="x" id="e2det--25663429--1132167972--1132167972_0--rs" lane="1132167972_0" pos="26.79" length="50"/>
    <laneAreaDetector file="e2.output.xml" freq="60" friendlyPos="x" id="e2det--25663429--1132167972--1132167972_1--slt" lane="1132167972_1" pos="26.79" length="50"/>
    <laneAreaDetector file="e2.output.xml" freq="60" friendlyPos="x" id="e2det--25663423---66071387#4---66071387#4_0--rs" lane="-66071387#4_0" pos="62.050000000000004" length="50"/>
    <laneAreaDetector file="e2.output.xml" freq="60" friendlyPos="x" id="e2det--25663423---66071387#4---66071387#4_1--slt" lane="-66071387#4_1" pos="62.050000000000004" length="50"/>
    <laneAreaDetector file="e2.output.xml" freq="60" friendlyPos="x" id="e2det--25663423---32938173#2---32938173#2_0--rs" lane="-32938173#2_0" pos="48.43" length="50"/>
    <laneAreaDetector file="e2.output.xml" freq="60" friendlyPos="x" id="e2det--25663423---32938173#2---32938173#2_1--slt" lane="-32938173#2_1" pos="48.43" length="50"/>
    <laneAreaDetector file="e2.output.xml" freq="60" friendlyPos="x" id="e2det--25663423--1152723807--1152723807_0--rs" lane="1152723807_0" pos="69.96000000000001" length="50"/>
    <laneAreaDetector file="e2.output.xml" freq="60" friendlyPos="x" id="e2det--25663423--1152723807--1152723807_1--slt" lane="1152723807_1" pos="69.96000000000001" length="50"/>
    <laneAreaDetector file="e2.output.xml" freq="60" friendlyPos="x" id="e2det--25663423--23755731#0--23755731#0_0--rs" lane="23755731#0_0" pos="28.15" length="50"/>
    <laneAreaDetector file="e2.output.xml" freq="60" friendlyPos="x" id="e2det--25663423--23755731#0--23755731#0_1--slt" lane="23755731#0_1" pos="28.15" length="50"/>
    <laneAreaDetector file="e2.output.xml" freq="60" friendlyPos="x" id="e2det--25663426---1152723815---1152723815_0--rs" lane="-1152723815_0" pos="48.27" length="50"/>
    <laneAreaDetector file="e2.output.xml" freq="60" friendlyPos="x" id="e2det--25663426---1152723815---1152723815_1--slt" lane="-1152723815_1" pos="48.27" length="50"/>
    <laneAreaDetector file="e2.output.xml" freq="60" friendlyPos="x" id="e2det--25663426---1147648945#1---1147648945#1_0--rs" lane="-1147648945#1_0" pos="47.839999999999996" length="50"/>
    <laneAreaDetector file="e2.output.xml" freq="60" friendlyPos="x" id="e2det--25663426---1147648945#1---1147648945#1_1--slt" lane="-1147648945#1_1" pos="47.839999999999996" length="50"/>
    <laneAreaDetector file="e2.output.xml" freq="60" friendlyPos="x" id="e2det--25663426--1152723806--1152723806_0--rs" lane="1152723806_0" pos="62.050000000000004" length="50"/>
    <laneAreaDetector file="e2.output.xml" freq="60" friendlyPos="x" id="e2det--25663426--1152723806--1152723806_1--slt" lane="1152723806_1" pos="62.050000000000004" length="50"/>
    <laneAreaDetector file="e2.output.xml" freq="60" friendlyPos="x" id="e2det--25663426--327756257#1--327756257#1_0--rs" lane="327756257#1_0" pos="27.309999999999995" length="50"/>
    <laneAreaDetector file="e2.output.xml" freq="60" friendlyPos="x" id="e2det--25663426--327756257#1--327756257#1_1--slt" lane="327756257#1_1" pos="27.309999999999995" length="50"/>
</additional>
