<additional xmlns:xsi="http://www.w3.org/2001/XMLSchema-instance" xsi:noNamespaceSchemaLocation="http://sumo.dlr.de/xsd/additional_file.xsd">
    <timedEvent type="SaveTLSStates" source="25663429" dest="SaveTLSStates_25663429.out.xml"/>
    <timedEvent type="SaveTLSStates" source="25663405" dest="SaveTLSStates_25663405.out.xml"/>
    <timedEvent type="SaveTLSStates" source="25663426" dest="SaveTLSStates_25663426.out.xml"/>
    <timedEvent type="SaveTLSStates" source="25663407" dest="SaveTLSStates_25663407.out.xml"/>
    <timedEvent type="SaveTLSStates" source="25663423" dest="SaveTLSStates_25663423.out.xml"/>
    <timedEvent type="SaveTLSStates" source="25663436" dest="SaveTLSStates_25663436.out.xml"/>
    <timedEvent type="SaveTLSProgram" source="25663429" dest="SaveTLSProgram_25663429.out.xml"/>
    <timedEvent type="SaveTLSProgram" source="25663405" dest="SaveTLSProgram_25663405.out.xml"/>
    <timedEvent type="SaveTLSProgram" source="25663426" dest="SaveTLSProgram_25663426.out.xml"/>
    <timedEvent type="SaveTLSProgram" source="25663407" dest="SaveTLSProgram_25663407.out.xml"/>
    <timedEvent type="SaveTLSProgram" source="25663423" dest="SaveTLSProgram_25663423.out.xml"/>
    <timedEvent type="SaveTLSProgram" source="25663436" dest="SaveTLSProgram_25663436.out.xml"/>
    <timedEvent type="SaveTLSSwitchStates" source="25663429" dest="SaveTLSSwitchStates_25663429.out.xml"/>
    <timedEvent type="SaveTLSSwitchStates" source="25663405" dest="SaveTLSSwitchStates_25663405.out.xml"/>
    <timedEvent type="SaveTLSSwitchStates" source="25663426" dest="SaveTLSSwitchStates_25663426.out.xml"/>
    <timedEvent type="SaveTLSSwitchStates" source="25663407" dest="SaveTLSSwitchStates_25663407.out.xml"/>
    <timedEvent type="SaveTLSSwitchStates" source="25663423" dest="SaveTLSSwitchStates_25663423.out.xml"/>
    <timedEvent type="SaveTLSSwitchStates" source="25663436" dest="SaveTLSSwitchStates_25663436.out.xml"/>
    <timedEvent type="SaveTLSSwitchTimes" source="25663429" dest="SaveTLSSwitchTimes_25663429.out.xml"/>
    <timedEvent type="SaveTLSSwitchTimes" source="25663405" dest="SaveTLSSwitchTimes_25663405.out.xml"/>
    <timedEvent type="SaveTLSSwitchTimes" source="25663426" dest="SaveTLSSwitchTimes_25663426.out.xml"/>
    <timedEvent type="SaveTLSSwitchTimes" source="25663407" dest="SaveTLSSwitchTimes_25663407.out.xml"/>
    <timedEvent type="SaveTLSSwitchTimes" source="25663423" dest="SaveTLSSwitchTimes_25663423.out.xml"/>
    <timedEvent type="SaveTLSSwitchTimes" source="25663436" dest="SaveTLSSwitchTimes_25663436.out.xml"/>
</additional>
