<?xml version="1.0" encoding="UTF-8"?>

<!-- generated on 2023-11-17 16:31:25 by Eclipse SUMO jtrrouter Version 1.18.0
<configuration xmlns:xsi="http://www.w3.org/2001/XMLSchema-instance" xsi:noNamespaceSchemaLocation="http://sumo.dlr.de/xsd/jtrrouterConfiguration.xsd">

    <input>
        <net-file value="/home/wmn/TransSimHub/benchmark/sumo_envs/veh_rlhf/./veh_rlhf.net.xml"/>
        <route-files value="/home/wmn/TransSimHub/benchmark/sumo_envs/veh_rlhf/./testflow.trip.xml"/>
        <turn-ratio-files value="/home/wmn/TransSimHub/benchmark/sumo_envs/veh_rlhf/./testflow.turndefs.xml"/>
    </input>

    <output>
        <output-file value="/home/wmn/TransSimHub/benchmark/sumo_envs/veh_rlhf/./veh_rlhf.rou.xml"/>
    </output>

    <processing>
        <randomize-flows value="True"/>
        <accept-all-destinations value="True"/>
    </processing>

    <defaults>
        <departlane value="random"/>
    </defaults>

    <report>
        <no-warnings value="true"/>
    </report>

    <random_number>
        <seed value="777"/>
    </random_number>

</configuration>
-->

<routes xmlns:xsi="http://www.w3.org/2001/XMLSchema-instance" xsi:noNamespaceSchemaLocation="http://sumo.dlr.de/xsd/routes_file.xsd">
    <vType id="background" length="7.00" maxSpeed="6.00" color="155,89,182" tau="1.0"/>
    <vehicle id="E0__0__background.0" type="background" depart="10.88" departLane="random">
        <route edges="E0"/>
    </vehicle>
    <vehicle id="E0__0__background.1" type="background" depart="15.93" departLane="random">
        <route edges="E0"/>
    </vehicle>
    <vehicle id="E0__0__background.2" type="background" depart="26.70" departLane="random">
        <route edges="E0"/>
    </vehicle>
    <vehicle id="E0__0__background.3" type="background" depart="28.79" departLane="random">
        <route edges="E0"/>
    </vehicle>
    <vehicle id="E0__0__background.4" type="background" depart="36.79" departLane="random">
        <route edges="E0"/>
    </vehicle>
    <vehicle id="E0__0__background.5" type="background" depart="40.54" departLane="random">
        <route edges="E0"/>
    </vehicle>
    <vehicle id="E0__0__background.6" type="background" depart="44.46" departLane="random">
        <route edges="E0"/>
    </vehicle>
    <vType id="ego" length="7.00" maxSpeed="11.00" color="26,188,156" tau="1.0"/>
    <vehicle id="E0__0__ego.0" type="ego" depart="47.92" departLane="random">
        <route edges="E0"/>
    </vehicle>
    <vehicle id="E0__0__background.7" type="background" depart="52.13" departLane="random">
        <route edges="E0"/>
    </vehicle>
    <vehicle id="E0__0__background.8" type="background" depart="54.94" departLane="random">
        <route edges="E0"/>
    </vehicle>
    <vehicle id="E0__1__ego.0" type="ego" depart="63.58" departLane="random">
        <route edges="E0"/>
    </vehicle>
    <vehicle id="E0__1__background.0" type="background" depart="65.68" departLane="random">
        <route edges="E0"/>
    </vehicle>
    <vehicle id="E0__1__background.1" type="background" depart="66.54" departLane="random">
        <route edges="E0"/>
    </vehicle>
    <vehicle id="E0__1__background.2" type="background" depart="66.80" departLane="random">
        <route edges="E0"/>
    </vehicle>
    <vehicle id="E0__1__background.3" type="background" depart="67.71" departLane="random">
        <route edges="E0"/>
    </vehicle>
    <vehicle id="E0__1__background.4" type="background" depart="70.82" departLane="random">
        <route edges="E0"/>
    </vehicle>
    <vehicle id="E0__1__background.5" type="background" depart="71.03" departLane="random">
        <route edges="E0"/>
    </vehicle>
    <vehicle id="E0__1__background.6" type="background" depart="72.32" departLane="random">
        <route edges="E0"/>
    </vehicle>
    <vehicle id="E0__1__background.7" type="background" depart="75.68" departLane="random">
        <route edges="E0"/>
    </vehicle>
    <vehicle id="E0__1__ego.1" type="ego" depart="77.37" departLane="random">
        <route edges="E0"/>
    </vehicle>
    <vehicle id="E0__1__background.8" type="background" depart="79.28" departLane="random">
        <route edges="E0"/>
    </vehicle>
    <vehicle id="E0__1__background.9" type="background" depart="80.32" departLane="random">
        <route edges="E0"/>
    </vehicle>
    <vehicle id="E0__1__background.10" type="background" depart="85.90" departLane="random">
        <route edges="E0"/>
    </vehicle>
    <vehicle id="E0__1__background.11" type="background" depart="86.95" departLane="random">
        <route edges="E0"/>
    </vehicle>
    <vehicle id="E0__1__background.12" type="background" depart="95.91" departLane="random">
        <route edges="E0"/>
    </vehicle>
    <vehicle id="E0__1__background.13" type="background" depart="100.85" departLane="random">
        <route edges="E0"/>
    </vehicle>
    <vehicle id="E0__1__background.14" type="background" depart="101.30" departLane="random">
        <route edges="E0"/>
    </vehicle>
    <vehicle id="E0__1__background.15" type="background" depart="106.02" departLane="random">
        <route edges="E0"/>
    </vehicle>
    <vehicle id="E0__1__background.16" type="background" depart="108.23" departLane="random">
        <route edges="E0"/>
    </vehicle>
    <vehicle id="E0__1__background.17" type="background" depart="116.15" departLane="random">
        <route edges="E0"/>
    </vehicle>
    <vehicle id="E0__2__ego.0" type="ego" depart="120.84" departLane="random">
        <route edges="E0"/>
    </vehicle>
    <vehicle id="E0__2__background.0" type="background" depart="124.16" departLane="random">
        <route edges="E0"/>
    </vehicle>
    <vehicle id="E0__2__background.1" type="background" depart="125.99" departLane="random">
        <route edges="E0"/>
    </vehicle>
    <vehicle id="E0__2__background.2" type="background" depart="127.95" departLane="random">
        <route edges="E0"/>
    </vehicle>
    <vehicle id="E0__2__ego.1" type="ego" depart="136.75" departLane="random">
        <route edges="E0"/>
    </vehicle>
    <vehicle id="E0__2__background.3" type="background" depart="143.35" departLane="random">
        <route edges="E0"/>
    </vehicle>
    <vehicle id="E0__2__background.4" type="background" depart="145.22" departLane="random">
        <route edges="E0"/>
    </vehicle>
    <vehicle id="E0__2__background.5" type="background" depart="146.23" departLane="random">
        <route edges="E0"/>
    </vehicle>
    <vehicle id="E0__2__background.6" type="background" depart="146.40" departLane="random">
        <route edges="E0"/>
    </vehicle>
    <vehicle id="E0__2__background.7" type="background" depart="148.29" departLane="random">
        <route edges="E0"/>
    </vehicle>
    <vehicle id="E0__2__background.8" type="background" depart="150.89" departLane="random">
        <route edges="E0"/>
    </vehicle>
    <vehicle id="E0__2__background.9" type="background" depart="151.08" departLane="random">
        <route edges="E0"/>
    </vehicle>
    <vehicle id="E0__2__background.10" type="background" depart="153.66" departLane="random">
        <route edges="E0"/>
    </vehicle>
    <vehicle id="E0__2__background.11" type="background" depart="159.15" departLane="random">
        <route edges="E0"/>
    </vehicle>
    <vehicle id="E0__2__background.12" type="background" depart="163.19" departLane="random">
        <route edges="E0"/>
    </vehicle>
    <vehicle id="E0__2__background.13" type="background" depart="166.02" departLane="random">
        <route edges="E0"/>
    </vehicle>
    <vehicle id="E0__2__background.14" type="background" depart="168.14" departLane="random">
        <route edges="E0"/>
    </vehicle>
    <vehicle id="E0__2__background.15" type="background" depart="171.52" departLane="random">
        <route edges="E0"/>
    </vehicle>
    <vehicle id="E0__2__background.16" type="background" depart="173.45" departLane="random">
        <route edges="E0"/>
    </vehicle>
    <vehicle id="E0__2__background.17" type="background" depart="179.78" departLane="random">
        <route edges="E0"/>
    </vehicle>
    <vehicle id="E0__3__background.0" type="background" depart="180.03" departLane="random">
        <route edges="E0"/>
    </vehicle>
    <vehicle id="E0__3__ego.0" type="ego" depart="184.54" departLane="random">
        <route edges="E0"/>
    </vehicle>
    <vehicle id="E0__3__background.1" type="background" depart="189.31" departLane="random">
        <route edges="E0"/>
    </vehicle>
    <vehicle id="E0__3__background.2" type="background" depart="191.26" departLane="random">
        <route edges="E0"/>
    </vehicle>
    <vehicle id="E0__3__background.3" type="background" depart="195.08" departLane="random">
        <route edges="E0"/>
    </vehicle>
    <vehicle id="E0__3__background.4" type="background" depart="195.59" departLane="random">
        <route edges="E0"/>
    </vehicle>
    <vehicle id="E0__3__background.5" type="background" depart="198.84" departLane="random">
        <route edges="E0"/>
    </vehicle>
    <vehicle id="E0__3__background.6" type="background" depart="209.83" departLane="random">
        <route edges="E0"/>
    </vehicle>
    <vehicle id="E0__3__background.7" type="background" depart="223.28" departLane="random">
        <route edges="E0"/>
    </vehicle>
    <vehicle id="E0__3__background.8" type="background" depart="229.14" departLane="random">
        <route edges="E0"/>
    </vehicle>
    <vehicle id="E0__3__background.9" type="background" depart="231.42" departLane="random">
        <route edges="E0"/>
    </vehicle>
    <vehicle id="E0__3__background.10" type="background" depart="233.47" departLane="random">
        <route edges="E0"/>
    </vehicle>
    <vehicle id="E0__3__background.11" type="background" depart="234.52" departLane="random">
        <route edges="E0"/>
    </vehicle>
    <vehicle id="E0__3__background.12" type="background" depart="237.89" departLane="random">
        <route edges="E0"/>
    </vehicle>
    <vehicle id="E0__4__background.0" type="background" depart="241.54" departLane="random">
        <route edges="E0"/>
    </vehicle>
    <vehicle id="E0__4__background.1" type="background" depart="243.43" departLane="random">
        <route edges="E0"/>
    </vehicle>
    <vehicle id="E0__4__background.2" type="background" depart="243.47" departLane="random">
        <route edges="E0"/>
    </vehicle>
    <vehicle id="E0__4__background.3" type="background" depart="250.17" departLane="random">
        <route edges="E0"/>
    </vehicle>
    <vehicle id="E0__4__background.4" type="background" depart="252.29" departLane="random">
        <route edges="E0"/>
    </vehicle>
    <vehicle id="E0__4__background.5" type="background" depart="252.41" departLane="random">
        <route edges="E0"/>
    </vehicle>
    <vehicle id="E0__4__background.6" type="background" depart="253.67" departLane="random">
        <route edges="E0"/>
    </vehicle>
    <vehicle id="E0__4__background.7" type="background" depart="256.46" departLane="random">
        <route edges="E0"/>
    </vehicle>
    <vehicle id="E0__4__background.8" type="background" depart="256.73" departLane="random">
        <route edges="E0"/>
    </vehicle>
    <vehicle id="E0__4__background.9" type="background" depart="260.50" departLane="random">
        <route edges="E0"/>
    </vehicle>
    <vehicle id="E0__4__background.10" type="background" depart="277.85" departLane="random">
        <route edges="E0"/>
    </vehicle>
    <vehicle id="E0__4__ego.0" type="ego" depart="282.87" departLane="random">
        <route edges="E0"/>
    </vehicle>
    <vehicle id="E0__4__background.11" type="background" depart="285.90" departLane="random">
        <route edges="E0"/>
    </vehicle>
    <vehicle id="E0__4__background.12" type="background" depart="290.49" departLane="random">
        <route edges="E0"/>
    </vehicle>
    <vehicle id="E0__5__background.0" type="background" depart="300.09" departLane="random">
        <route edges="E0"/>
    </vehicle>
    <vehicle id="E0__5__background.1" type="background" depart="300.19" departLane="random">
        <route edges="E0"/>
    </vehicle>
    <vehicle id="E0__5__ego.0" type="ego" depart="301.72" departLane="random">
        <route edges="E0"/>
    </vehicle>
    <vehicle id="E0__5__background.2" type="background" depart="314.01" departLane="random">
        <route edges="E0"/>
    </vehicle>
    <vehicle id="E0__5__background.3" type="background" depart="323.16" departLane="random">
        <route edges="E0"/>
    </vehicle>
    <vehicle id="E0__5__background.4" type="background" depart="325.86" departLane="random">
        <route edges="E0"/>
    </vehicle>
    <vehicle id="E0__5__background.5" type="background" depart="327.35" departLane="random">
        <route edges="E0"/>
    </vehicle>
    <vehicle id="E0__5__background.6" type="background" depart="331.85" departLane="random">
        <route edges="E0"/>
    </vehicle>
    <vehicle id="E0__5__background.7" type="background" depart="335.70" departLane="random">
        <route edges="E0"/>
    </vehicle>
    <vehicle id="E0__5__background.8" type="background" depart="339.52" departLane="random">
        <route edges="E0"/>
    </vehicle>
    <vehicle id="E0__5__background.9" type="background" depart="344.98" departLane="random">
        <route edges="E0"/>
    </vehicle>
    <vehicle id="E0__5__background.10" type="background" depart="347.92" departLane="random">
        <route edges="E0"/>
    </vehicle>
    <vehicle id="E0__5__background.11" type="background" depart="350.44" departLane="random">
        <route edges="E0"/>
    </vehicle>
    <vehicle id="E0__5__background.12" type="background" depart="352.24" departLane="random">
        <route edges="E0"/>
    </vehicle>
</routes>
