<?xml version="1.0" ?>
<configuration>

    <input>
        <net-file value="inter.net.xml"/>
        <route-files value="inter.rou.xml"/>
    </input>

</configuration>