<?xml version="1.0" encoding="UTF-8"?>

<!-- generated on 2024-06-25 17:19:40 by Eclipse SUMO netedit Version 1.19.0
<configuration xmlns:xsi="http://www.w3.org/2001/XMLSchema-instance" xsi:noNamespaceSchemaLocation="http://sumo.dlr.de/xsd/neteditConfiguration.xsd">

    <input>
        <sumo-net-file value="inter_tsc.net.xml"/>
    </input>

    <output>
        <output-file value="inter_tsc.net.xml"/>
    </output>

    <processing>
        <geometry.min-radius.fix.railways value="false"/>
        <geometry.max-grade.fix value="false"/>
        <offset.disable-normalization value="true"/>
        <lefthand value="0"/>
    </processing>

    <junctions>
        <no-turnarounds value="true"/>
        <junctions.corner-detail value="5"/>
        <junctions.limit-turn-speed value="5.50"/>
        <rectangular-lane-cut value="0"/>
    </junctions>

    <pedestrian>
        <walkingareas value="0"/>
    </pedestrian>

</configuration>
-->

<net version="1.16" junctionCornerDetail="5" limitTurnSpeed="5.50" xmlns:xsi="http://www.w3.org/2001/XMLSchema-instance" xsi:noNamespaceSchemaLocation="http://sumo.dlr.de/xsd/net_file.xsd">

    <location netOffset="0.00,0.00" convBoundary="-100.00,-100.00,100.00,100.00" origBoundary="-10000000000.00,-10000000000.00,10000000000.00,10000000000.00" projParameter="!"/>

    <edge id=":J1_0" function="internal">
        <lane id=":J1_0_0" index="0" speed="6.51" length="9.03" shape="-8.00,13.60 -8.35,11.15 -9.40,9.40 -11.15,8.35 -13.60,8.00"/>
    </edge>
    <edge id=":J1_1" function="internal">
        <lane id=":J1_1_0" index="0" speed="30.00" length="27.20" shape="-8.00,13.60 -8.00,-13.60"/>
        <lane id=":J1_1_1" index="1" speed="30.00" length="27.20" shape="-4.80,13.60 -4.80,-13.60"/>
        <lane id=":J1_1_2" index="2" speed="30.00" length="27.20" shape="-1.60,13.60 -1.60,-13.60"/>
    </edge>
    <edge id=":J1_4" function="internal">
        <lane id=":J1_4_0" index="0" speed="10.36" length="24.51" shape="-1.60,13.60 -0.65,6.95 2.20,2.20 6.95,-0.65 13.60,-1.60"/>
    </edge>
    <edge id=":J1_5" function="internal">
        <lane id=":J1_5_0" index="0" speed="6.51" length="9.03" shape="13.60,8.00 11.15,8.35 9.40,9.40 8.35,11.15 8.00,13.60"/>
    </edge>
    <edge id=":J1_6" function="internal">
        <lane id=":J1_6_0" index="0" speed="30.00" length="27.20" shape="13.60,8.00 -13.60,8.00"/>
        <lane id=":J1_6_1" index="1" speed="30.00" length="27.20" shape="13.60,4.80 -13.60,4.80"/>
        <lane id=":J1_6_2" index="2" speed="30.00" length="27.20" shape="13.60,1.60 -13.60,1.60"/>
    </edge>
    <edge id=":J1_9" function="internal">
        <lane id=":J1_9_0" index="0" speed="10.36" length="24.51" shape="13.60,1.60 6.95,0.65 2.20,-2.20 -0.65,-6.95 -1.60,-13.60"/>
    </edge>
    <edge id=":J1_10" function="internal">
        <lane id=":J1_10_0" index="0" speed="6.51" length="9.03" shape="8.00,-13.60 8.35,-11.15 9.40,-9.40 11.15,-8.35 13.60,-8.00"/>
    </edge>
    <edge id=":J1_11" function="internal">
        <lane id=":J1_11_0" index="0" speed="30.00" length="27.20" shape="8.00,-13.60 8.00,13.60"/>
        <lane id=":J1_11_1" index="1" speed="30.00" length="27.20" shape="4.80,-13.60 4.80,13.60"/>
        <lane id=":J1_11_2" index="2" speed="30.00" length="27.20" shape="1.60,-13.60 1.60,13.60"/>
    </edge>
    <edge id=":J1_14" function="internal">
        <lane id=":J1_14_0" index="0" speed="10.88" length="27.14" shape="1.60,-13.60 0.65,-5.55 -2.20,0.20 -6.95,3.65 -13.60,4.80"/>
    </edge>
    <edge id=":J1_15" function="internal">
        <lane id=":J1_15_0" index="0" speed="6.51" length="9.03" shape="-13.60,-8.00 -11.15,-8.35 -9.40,-9.40 -8.35,-11.15 -8.00,-13.60"/>
    </edge>
    <edge id=":J1_16" function="internal">
        <lane id=":J1_16_0" index="0" speed="30.00" length="27.20" shape="-13.60,-4.80 13.60,-4.80"/>
        <lane id=":J1_16_1" index="1" speed="30.00" length="27.20" shape="-13.60,-1.60 13.60,-1.60"/>
    </edge>
    <edge id=":J1_18" function="internal">
        <lane id=":J1_18_0" index="0" speed="10.36" length="24.51" shape="-13.60,-1.60 -6.95,-0.65 -2.20,2.20 0.65,6.95 1.60,13.60"/>
    </edge>

    <edge id="-E0" from="J1" to="J0" priority="20">
        <lane id="-E0_0" index="0" speed="30.00" length="86.40" shape="-13.60,8.00 -100.00,8.00"/>
        <lane id="-E0_1" index="1" speed="30.00" length="86.40" shape="-13.60,4.80 -100.00,4.80"/>
        <lane id="-E0_2" index="2" speed="30.00" length="86.40" shape="-13.60,1.60 -100.00,1.60"/>
    </edge>
    <edge id="-E1" from="J2" to="J1" priority="1">
        <lane id="-E1_0" index="0" speed="30.00" length="86.40" shape="8.00,-100.00 8.00,-13.60"/>
        <lane id="-E1_1" index="1" speed="30.00" length="86.40" shape="4.80,-100.00 4.80,-13.60"/>
        <lane id="-E1_2" index="2" speed="30.00" length="86.40" shape="1.60,-100.00 1.60,-13.60"/>
    </edge>
    <edge id="-E2" from="J1" to="J3" priority="1">
        <lane id="-E2_0" index="0" speed="30.00" length="86.40" shape="8.00,13.60 8.00,100.00"/>
        <lane id="-E2_1" index="1" speed="30.00" length="86.40" shape="4.80,13.60 4.80,100.00"/>
        <lane id="-E2_2" index="2" speed="30.00" length="86.40" shape="1.60,13.60 1.60,100.00"/>
    </edge>
    <edge id="-E3" from="J4" to="J1" priority="20">
        <lane id="-E3_0" index="0" speed="30.00" length="86.40" shape="100.00,8.00 13.60,8.00"/>
        <lane id="-E3_1" index="1" speed="30.00" length="86.40" shape="100.00,4.80 13.60,4.80"/>
        <lane id="-E3_2" index="2" speed="30.00" length="86.40" shape="100.00,1.60 13.60,1.60"/>
    </edge>
    <edge id="E0" from="J0" to="J1" priority="20">
        <lane id="E0_0" index="0" speed="30.00" length="86.40" shape="-100.00,-8.00 -13.60,-8.00"/>
        <lane id="E0_1" index="1" speed="30.00" length="86.40" shape="-100.00,-4.80 -13.60,-4.80"/>
        <lane id="E0_2" index="2" speed="30.00" length="86.40" shape="-100.00,-1.60 -13.60,-1.60"/>
    </edge>
    <edge id="E1" from="J1" to="J2" priority="1">
        <lane id="E1_0" index="0" speed="30.00" length="86.40" shape="-8.00,-13.60 -8.00,-100.00"/>
        <lane id="E1_1" index="1" speed="30.00" length="86.40" shape="-4.80,-13.60 -4.80,-100.00"/>
        <lane id="E1_2" index="2" speed="30.00" length="86.40" shape="-1.60,-13.60 -1.60,-100.00"/>
    </edge>
    <edge id="E2" from="J3" to="J1" priority="1">
        <lane id="E2_0" index="0" speed="30.00" length="86.40" shape="-8.00,100.00 -8.00,13.60"/>
        <lane id="E2_1" index="1" speed="30.00" length="86.40" shape="-4.80,100.00 -4.80,13.60"/>
        <lane id="E2_2" index="2" speed="30.00" length="86.40" shape="-1.60,100.00 -1.60,13.60"/>
    </edge>
    <edge id="E3" from="J1" to="J4" priority="20">
        <lane id="E3_0" index="0" speed="30.00" length="86.40" shape="13.60,-8.00 100.00,-8.00"/>
        <lane id="E3_1" index="1" speed="30.00" length="86.40" shape="13.60,-4.80 100.00,-4.80"/>
        <lane id="E3_2" index="2" speed="30.00" length="86.40" shape="13.60,-1.60 100.00,-1.60"/>
    </edge>

    <tlLogic id="J1" type="static" programID="0" offset="0">
        <phase duration="39" state="rrrrrGGGGGrrrrrGGGG"/>
        <phase duration="6"  state="yyyyyyyyyyyyyyyyyyy"/>
        <phase duration="39" state="GGGGGrrrrrGGGGGrrrr"/>
        <phase duration="6"  state="yyyyyyyyyyyyyyyyyyy"/>
    </tlLogic>

    <junction id="J0" type="dead_end" x="-100.00" y="0.00" incLanes="-E0_0 -E0_1 -E0_2" intLanes="" shape="-100.00,0.00 -100.00,9.60 -100.00,0.00"/>
    <junction id="J1" type="traffic_light" x="0.00" y="0.00" incLanes="E2_0 E2_1 E2_2 -E3_0 -E3_1 -E3_2 -E1_0 -E1_1 -E1_2 E0_0 E0_1 E0_2" intLanes=":J1_0_0 :J1_1_0 :J1_1_1 :J1_1_2 :J1_4_0 :J1_5_0 :J1_6_0 :J1_6_1 :J1_6_2 :J1_9_0 :J1_10_0 :J1_11_0 :J1_11_1 :J1_11_2 :J1_14_0 :J1_15_0 :J1_16_0 :J1_16_1 :J1_18_0" shape="-9.60,13.60 9.60,13.60 10.04,11.38 10.60,10.60 11.38,10.04 12.38,9.71 13.60,9.60 13.60,-9.60 11.38,-10.04 10.60,-10.60 10.04,-11.38 9.71,-12.38 9.60,-13.60 -9.60,-13.60 -10.04,-11.38 -10.60,-10.60 -11.38,-10.04 -12.38,-9.71 -13.60,-9.60 -13.60,9.60 -11.38,10.04 -10.60,10.60 -10.04,11.38 -9.71,12.38">
        <request index="0"  response="0000000000111000000" foes="0000000000111000000" cont="0"/>
        <request index="1"  response="1111000001111000000" foes="1111100001111000000" cont="0"/>
        <request index="2"  response="1111000001111000000" foes="1111100001111000000" cont="0"/>
        <request index="3"  response="1111000001111000000" foes="1111100001111000000" cont="0"/>
        <request index="4"  response="1110011101111000000" foes="1110011101111000000" cont="0"/>
        <request index="5"  response="0000000000000000000" foes="0000011100000000000" cont="0"/>
        <request index="6"  response="0000000000000000000" foes="1000111100000011111" cont="0"/>
        <request index="7"  response="0000000000000000000" foes="1000111100000011111" cont="0"/>
        <request index="8"  response="0000000000000000000" foes="1000111100000011111" cont="0"/>
        <request index="9"  response="0110000000000000000" foes="0110111100000011110" cont="0"/>
        <request index="10" response="0000000000000000000" foes="0000000000000000000" cont="0"/>
        <request index="11" response="1110000001111100000" foes="1110000001111110000" cont="0"/>
        <request index="12" response="1110000001111100000" foes="1110000001111110000" cont="0"/>
        <request index="13" response="1110000001111100000" foes="1110000001111110000" cont="0"/>
        <request index="14" response="1110000001111001110" foes="1110000001111001110" cont="0"/>
        <request index="15" response="0000000000000000000" foes="0000000000000001110" cont="0"/>
        <request index="16" response="0000000000000000000" foes="0000111101000011110" cont="0"/>
        <request index="17" response="0000000000000000000" foes="0000111101000011110" cont="0"/>
        <request index="18" response="0000000000111000000" foes="0000111100111011110" cont="0"/>
    </junction>
    <junction id="J2" type="dead_end" x="0.00" y="-100.00" incLanes="E1_0 E1_1 E1_2" intLanes="" shape="0.00,-100.00 -9.60,-100.00 0.00,-100.00"/>
    <junction id="J3" type="unregulated" x="0.00" y="100.00" incLanes="-E2_0 -E2_1 -E2_2" intLanes="" shape="0.00,100.00 9.60,100.00 0.00,100.00"/>
    <junction id="J4" type="dead_end" x="100.00" y="0.00" incLanes="E3_0 E3_1 E3_2" intLanes="" shape="100.00,0.00 100.00,-9.60 100.00,0.00"/>

    <connection from="-E1" to="E3" fromLane="0" toLane="0" via=":J1_10_0" tl="J1" linkIndex="10" dir="r" state="O"/>
    <connection from="-E1" to="-E2" fromLane="0" toLane="0" via=":J1_11_0" tl="J1" linkIndex="11" dir="s" state="o"/>
    <connection from="-E1" to="-E2" fromLane="1" toLane="1" via=":J1_11_1" tl="J1" linkIndex="12" dir="s" state="o"/>
    <connection from="-E1" to="-E2" fromLane="2" toLane="2" via=":J1_11_2" tl="J1" linkIndex="13" dir="s" state="o"/>
    <connection from="-E1" to="-E0" fromLane="2" toLane="1" via=":J1_14_0" tl="J1" linkIndex="14" dir="l" state="o"/>
    <connection from="-E3" to="-E2" fromLane="0" toLane="0" via=":J1_5_0" tl="J1" linkIndex="5" dir="r" state="O"/>
    <connection from="-E3" to="-E0" fromLane="0" toLane="0" via=":J1_6_0" tl="J1" linkIndex="6" dir="s" state="O"/>
    <connection from="-E3" to="-E0" fromLane="1" toLane="1" via=":J1_6_1" tl="J1" linkIndex="7" dir="s" state="O"/>
    <connection from="-E3" to="-E0" fromLane="2" toLane="2" via=":J1_6_2" tl="J1" linkIndex="8" dir="s" state="O"/>
    <connection from="-E3" to="E1" fromLane="2" toLane="2" via=":J1_9_0" tl="J1" linkIndex="9" dir="l" state="o"/>
    <connection from="E0" to="E1" fromLane="0" toLane="0" via=":J1_15_0" tl="J1" linkIndex="15" dir="r" state="O"/>
    <connection from="E0" to="E3" fromLane="1" toLane="1" via=":J1_16_0" tl="J1" linkIndex="16" dir="s" state="O"/>
    <connection from="E0" to="E3" fromLane="2" toLane="2" via=":J1_16_1" tl="J1" linkIndex="17" dir="s" state="O"/>
    <connection from="E0" to="-E2" fromLane="2" toLane="2" via=":J1_18_0" tl="J1" linkIndex="18" dir="l" state="o"/>
    <connection from="E2" to="-E0" fromLane="0" toLane="0" via=":J1_0_0" tl="J1" linkIndex="0" dir="r" state="o"/>
    <connection from="E2" to="E1" fromLane="0" toLane="0" via=":J1_1_0" tl="J1" linkIndex="1" dir="s" state="o"/>
    <connection from="E2" to="E1" fromLane="1" toLane="1" via=":J1_1_1" tl="J1" linkIndex="2" dir="s" state="o"/>
    <connection from="E2" to="E1" fromLane="2" toLane="2" via=":J1_1_2" tl="J1" linkIndex="3" dir="s" state="o"/>
    <connection from="E2" to="E3" fromLane="2" toLane="2" via=":J1_4_0" tl="J1" linkIndex="4" dir="l" state="o"/>

    <connection from=":J1_0" to="-E0" fromLane="0" toLane="0" dir="r" state="M"/>
    <connection from=":J1_1" to="E1" fromLane="0" toLane="0" dir="s" state="M"/>
    <connection from=":J1_1" to="E1" fromLane="1" toLane="1" dir="s" state="M"/>
    <connection from=":J1_1" to="E1" fromLane="2" toLane="2" dir="s" state="M"/>
    <connection from=":J1_4" to="E3" fromLane="0" toLane="2" dir="l" state="M"/>
    <connection from=":J1_5" to="-E2" fromLane="0" toLane="0" dir="r" state="M"/>
    <connection from=":J1_6" to="-E0" fromLane="0" toLane="0" dir="s" state="M"/>
    <connection from=":J1_6" to="-E0" fromLane="1" toLane="1" dir="s" state="M"/>
    <connection from=":J1_6" to="-E0" fromLane="2" toLane="2" dir="s" state="M"/>
    <connection from=":J1_9" to="E1" fromLane="0" toLane="2" dir="l" state="M"/>
    <connection from=":J1_10" to="E3" fromLane="0" toLane="0" dir="r" state="M"/>
    <connection from=":J1_11" to="-E2" fromLane="0" toLane="0" dir="s" state="M"/>
    <connection from=":J1_11" to="-E2" fromLane="1" toLane="1" dir="s" state="M"/>
    <connection from=":J1_11" to="-E2" fromLane="2" toLane="2" dir="s" state="M"/>
    <connection from=":J1_14" to="-E0" fromLane="0" toLane="1" dir="l" state="M"/>
    <connection from=":J1_15" to="E1" fromLane="0" toLane="0" dir="r" state="M"/>
    <connection from=":J1_16" to="E3" fromLane="0" toLane="1" dir="s" state="M"/>
    <connection from=":J1_16" to="E3" fromLane="1" toLane="2" dir="s" state="M"/>
    <connection from=":J1_18" to="-E2" fromLane="0" toLane="2" dir="l" state="M"/>

</net>
