<?xml version="1.0" encoding="UTF-8"?>

<routes xmlns:xsi="http://www.w3.org/2001/XMLSchema-instance" xsi:noNamespaceSchemaLocation="http://sumo.dlr.de/xsd/routes_file.xsd">
    <!-- 只有一个类型的ego-->
    <vType id="ego" length="7.00" maxSpeed="17.00" color="26,188,156" tau="1.0"/>
    <!-- 所有车同时出发 初始速度相同   -->
    <vehicle id="ego_1" type="ego" depart="0.0" departLane="2" departSpeed="1">
            <route edges="E0 -E2"/>
        </vehicle>
    <vehicle id="ego_2" type="ego" depart="0.0" departLane="2" departSpeed="1">
            <route edges="-E3 E1"/>
        </vehicle>
    <vehicle id="ego_3" type="ego" depart="0.0" departLane="1" departSpeed="1">
            <route edges="-E1 -E2"/>
        </vehicle>
    <vehicle id="ego_4" type="ego" depart="0.0" departLane="0" departSpeed="1">
            <route edges="E2 E1"/>
        </vehicle>

</routes>
