<additional xmlns:xsi="http://www.w3.org/2001/XMLSchema-instance" xsi:noNamespaceSchemaLocation="http://sumo.dlr.de/xsd/additional_file.xsd">
    <timedEvent type="SaveTLSStates" source="htddj_gsndj" dest="SaveTLSStates_htddj_gsndj.out.xml"/>
    <timedEvent type="SaveTLSProgram" source="htddj_gsndj" dest="SaveTLSProgram_htddj_gsndj.out.xml"/>
    <timedEvent type="SaveTLSSwitchStates" source="htddj_gsndj" dest="SaveTLSSwitchStates_htddj_gsndj.out.xml"/>
    <timedEvent type="SaveTLSSwitchTimes" source="htddj_gsndj" dest="SaveTLSSwitchTimes_htddj_gsndj.out.xml"/>
</additional>
