<additional xmlns:xsi="http://www.w3.org/2001/XMLSchema-instance" xsi:noNamespaceSchemaLocation="http://sumo.dlr.de/xsd/additional_file.xsd">
    <timedEvent type="SaveTLSStates" source="htddj_gsndj" dest="tls_state.out.xml"/>
</additional>