<routes>
    <vType id="taxi" accel="0.8" decel="4.5" sigma="0.5" length="5" maxSpeed="70"/>
    <route id="route0" color="1,1,0" edges="E0 E1"/>

    <vehicle id="0" type="taxi" route="route0" depart="0"/>
</routes>