<?xml version="1.0" encoding="UTF-8"?>

<!-- generated on 2023-10-27 20:55:42 by Eclipse SUMO jtrrouter Version 1.15.0
<configuration xmlns:xsi="http://www.w3.org/2001/XMLSchema-instance" xsi:noNamespaceSchemaLocation="http://sumo.dlr.de/xsd/jtrrouterConfiguration.xsd">

    <input>
        <net-file value="/home/wmn/TransSimHub/benchmark/sumo_envs/veh_speed/./veh.net.xml"/>
        <route-files value="/home/wmn/TransSimHub/benchmark/sumo_envs/veh_speed/./testflow.trip.xml"/>
        <turn-ratio-files value="/home/wmn/TransSimHub/benchmark/sumo_envs/veh_speed/./testflow.turndefs.xml"/>
    </input>

    <output>
        <output-file value="/home/wmn/TransSimHub/benchmark/sumo_envs/veh_speed/./veh.rou.xml"/>
    </output>

    <processing>
        <randomize-flows value="True"/>
        <accept-all-destinations value="True"/>
    </processing>

    <defaults>
        <departlane value="random"/>
    </defaults>

    <report>
        <no-warnings value="true"/>
    </report>

    <random_number>
        <seed value="777"/>
    </random_number>

</configuration>
-->

<routes xmlns:xsi="http://www.w3.org/2001/XMLSchema-instance" xsi:noNamespaceSchemaLocation="http://sumo.dlr.de/xsd/routes_file.xsd">
    <vType id="background" length="7.00" maxSpeed="17.00" color="155,89,182" tau="1.0"/>
    <vehicle id="E1__0__background.0" type="background" depart="10.88" departLane="random">
        <route edges="E1 E2"/>
    </vehicle>
    <vType id="ego" length="7.00" maxSpeed="17.00" color="26,188,156" tau="1.0"/>
    <vehicle id="E1__0__ego.0" type="ego" depart="15.93" departLane="random">
        <route edges="E1 E2"/>
    </vehicle>
    <vehicle id="E1__0__background.1" type="background" depart="26.70" departLane="random">
        <route edges="E1 E2"/>
    </vehicle>
    <vehicle id="E1__0__background.2" type="background" depart="28.79" departLane="random">
        <route edges="E1 E2"/>
    </vehicle>
    <vehicle id="E1__0__background.3" type="background" depart="36.79" departLane="random">
        <route edges="E1 E2"/>
    </vehicle>
    <vehicle id="E1__0__background.4" type="background" depart="40.54" departLane="random">
        <route edges="E1 E2"/>
    </vehicle>
    <vehicle id="E1__0__background.5" type="background" depart="44.46" departLane="random">
        <route edges="E1 E2"/>
    </vehicle>
    <vehicle id="E1__0__ego.1" type="ego" depart="47.92" departLane="random">
        <route edges="E1 E2"/>
    </vehicle>
    <vehicle id="E1__0__ego.2" type="ego" depart="52.13" departLane="random">
        <route edges="E1 E2"/>
    </vehicle>
    <vehicle id="E1__0__background.6" type="background" depart="54.94" departLane="random">
        <route edges="E1 E2"/>
    </vehicle>
    <vehicle id="E1__1__ego.0" type="ego" depart="63.58" departLane="random">
        <route edges="E1 E2"/>
    </vehicle>
    <vehicle id="E1__1__background.0" type="background" depart="66.54" departLane="random">
        <route edges="E1 E2"/>
    </vehicle>
    <vehicle id="E1__1__background.1" type="background" depart="66.80" departLane="random">
        <route edges="E1 E2"/>
    </vehicle>
    <vehicle id="E1__1__ego.1" type="ego" depart="71.03" departLane="random">
        <route edges="E1 E2"/>
    </vehicle>
    <vehicle id="E1__1__background.2" type="background" depart="72.32" departLane="random">
        <route edges="E1 E2"/>
    </vehicle>
    <vehicle id="E1__1__ego.2" type="ego" depart="77.37" departLane="random">
        <route edges="E1 E2"/>
    </vehicle>
    <vehicle id="E1__1__background.3" type="background" depart="80.32" departLane="random">
        <route edges="E1 E2"/>
    </vehicle>
    <vehicle id="E1__1__background.4" type="background" depart="85.90" departLane="random">
        <route edges="E1 E2"/>
    </vehicle>
    <vehicle id="E1__1__background.5" type="background" depart="86.95" departLane="random">
        <route edges="E1 E2"/>
    </vehicle>
    <vehicle id="E1__1__background.6" type="background" depart="100.85" departLane="random">
        <route edges="E1 E2"/>
    </vehicle>
    <vehicle id="E1__2__background.0" type="background" depart="125.68" departLane="random">
        <route edges="E1 E2"/>
    </vehicle>
    <vehicle id="E1__2__background.1" type="background" depart="127.71" departLane="random">
        <route edges="E1 E2"/>
    </vehicle>
    <vehicle id="E1__2__ego.0" type="ego" depart="130.82" departLane="random">
        <route edges="E1 E2"/>
    </vehicle>
    <vehicle id="E1__2__background.2" type="background" depart="135.68" departLane="random">
        <route edges="E1 E2"/>
    </vehicle>
    <vehicle id="E1__2__ego.1" type="ego" depart="139.28" departLane="random">
        <route edges="E1 E2"/>
    </vehicle>
    <vehicle id="E1__2__background.3" type="background" depart="155.91" departLane="random">
        <route edges="E1 E2"/>
    </vehicle>
    <vehicle id="E1__2__ego.2" type="ego" depart="161.30" departLane="random">
        <route edges="E1 E2"/>
    </vehicle>
    <vehicle id="E1__2__background.4" type="background" depart="166.02" departLane="random">
        <route edges="E1 E2"/>
    </vehicle>
    <vehicle id="E1__2__background.5" type="background" depart="168.23" departLane="random">
        <route edges="E1 E2"/>
    </vehicle>
    <vehicle id="E1__2__background.6" type="background" depart="176.15" departLane="random">
        <route edges="E1 E2"/>
    </vehicle>
    <vehicle id="E1__3__ego.0" type="ego" depart="180.84" departLane="random">
        <route edges="E1 E2"/>
    </vehicle>
    <vehicle id="E1__3__background.0" type="background" depart="184.16" departLane="random">
        <route edges="E1 E2"/>
    </vehicle>
    <vehicle id="E1__3__background.1" type="background" depart="187.95" departLane="random">
        <route edges="E1 E2"/>
    </vehicle>
    <vehicle id="E1__3__ego.1" type="ego" depart="196.75" departLane="random">
        <route edges="E1 E2"/>
    </vehicle>
    <vehicle id="E1__3__ego.2" type="ego" depart="203.35" departLane="random">
        <route edges="E1 E2"/>
    </vehicle>
    <vehicle id="E1__3__background.2" type="background" depart="208.29" departLane="random">
        <route edges="E1 E2"/>
    </vehicle>
    <vehicle id="E1__3__background.3" type="background" depart="213.66" departLane="random">
        <route edges="E1 E2"/>
    </vehicle>
    <vehicle id="E1__3__background.4" type="background" depart="226.02" departLane="random">
        <route edges="E1 E2"/>
    </vehicle>
    <vehicle id="E1__3__background.5" type="background" depart="231.52" departLane="random">
        <route edges="E1 E2"/>
    </vehicle>
    <vehicle id="E1__3__background.6" type="background" depart="233.45" departLane="random">
        <route edges="E1 E2"/>
    </vehicle>
    <vehicle id="E1__4__background.0" type="background" depart="241.72" departLane="random">
        <route edges="E1 E2"/>
    </vehicle>
    <vehicle id="E1__4__ego.0" type="ego" depart="245.99" departLane="random">
        <route edges="E1 E2"/>
    </vehicle>
    <vehicle id="E1__4__background.1" type="background" depart="250.17" departLane="random">
        <route edges="E1 E2"/>
    </vehicle>
    <vehicle id="E1__4__background.2" type="background" depart="252.29" departLane="random">
        <route edges="E1 E2"/>
    </vehicle>
    <vehicle id="E1__4__ego.1" type="ego" depart="265.22" departLane="random">
        <route edges="E1 E2"/>
    </vehicle>
    <vehicle id="E1__4__background.3" type="background" depart="267.35" departLane="random">
        <route edges="E1 E2"/>
    </vehicle>
    <vehicle id="E1__4__ego.2" type="ego" depart="283.19" departLane="random">
        <route edges="E1 E2"/>
    </vehicle>
    <vehicle id="E1__4__background.4" type="background" depart="284.98" departLane="random">
        <route edges="E1 E2"/>
    </vehicle>
    <vehicle id="E1__4__background.5" type="background" depart="287.92" departLane="random">
        <route edges="E1 E2"/>
    </vehicle>
    <vehicle id="E1__4__background.6" type="background" depart="290.49" departLane="random">
        <route edges="E1 E2"/>
    </vehicle>
    <vehicle id="E1__5__background.0" type="background" depart="300.09" departLane="random">
        <route edges="E1 E2"/>
    </vehicle>
    <vehicle id="E1__5__background.1" type="background" depart="300.19" departLane="random">
        <route edges="E1 E2"/>
    </vehicle>
    <vehicle id="E1__5__ego.0" type="ego" depart="314.01" departLane="random">
        <route edges="E1 E2"/>
    </vehicle>
    <vehicle id="E1__5__ego.1" type="ego" depart="323.16" departLane="random">
        <route edges="E1 E2"/>
    </vehicle>
    <vehicle id="E1__5__background.2" type="background" depart="325.86" departLane="random">
        <route edges="E1 E2"/>
    </vehicle>
    <vehicle id="E1__5__background.3" type="background" depart="331.85" departLane="random">
        <route edges="E1 E2"/>
    </vehicle>
    <vehicle id="E1__5__ego.2" type="ego" depart="335.70" departLane="random">
        <route edges="E1 E2"/>
    </vehicle>
    <vehicle id="E1__5__background.4" type="background" depart="339.52" departLane="random">
        <route edges="E1 E2"/>
    </vehicle>
    <vehicle id="E1__5__background.5" type="background" depart="350.44" departLane="random">
        <route edges="E1 E2"/>
    </vehicle>
    <vehicle id="E1__5__background.6" type="background" depart="352.24" departLane="random">
        <route edges="E1 E2"/>
    </vehicle>
    <vehicle id="E1__5__background.7" type="background" depart="358.72" departLane="random">
        <route edges="E1 E2"/>
    </vehicle>
    <vehicle id="E1__6__ego.0" type="ego" depart="364.84" departLane="random">
        <route edges="E1 E2"/>
    </vehicle>
    <vehicle id="E1__6__background.0" type="background" depart="384.69" departLane="random">
        <route edges="E1 E2"/>
    </vehicle>
    <vehicle id="E1__6__ego.1" type="ego" depart="385.80" departLane="random">
        <route edges="E1 E2"/>
    </vehicle>
    <vehicle id="E1__6__background.1" type="background" depart="399.82" departLane="random">
        <route edges="E1 E2"/>
    </vehicle>
    <vehicle id="E1__6__ego.2" type="ego" depart="402.11" departLane="random">
        <route edges="E1 E2"/>
    </vehicle>
    <vehicle id="E1__6__background.2" type="background" depart="402.53" departLane="random">
        <route edges="E1 E2"/>
    </vehicle>
    <vehicle id="E1__6__background.3" type="background" depart="403.32" departLane="random">
        <route edges="E1 E2"/>
    </vehicle>
    <vehicle id="E1__6__background.4" type="background" depart="403.99" departLane="random">
        <route edges="E1 E2"/>
    </vehicle>
    <vehicle id="E1__6__background.5" type="background" depart="404.08" departLane="random">
        <route edges="E1 E2"/>
    </vehicle>
    <vehicle id="E1__6__background.6" type="background" depart="405.08" departLane="random">
        <route edges="E1 E2"/>
    </vehicle>
    <vehicle id="E1__6__background.7" type="background" depart="407.20" departLane="random">
        <route edges="E1 E2"/>
    </vehicle>
    <vehicle id="E1__7__background.0" type="background" depart="420.02" departLane="random">
        <route edges="E1 E2"/>
    </vehicle>
    <vehicle id="E1__7__background.1" type="background" depart="429.59" departLane="random">
        <route edges="E1 E2"/>
    </vehicle>
    <vehicle id="E1__7__ego.0" type="ego" depart="436.26" departLane="random">
        <route edges="E1 E2"/>
    </vehicle>
    <vehicle id="E1__7__background.2" type="background" depart="436.61" departLane="random">
        <route edges="E1 E2"/>
    </vehicle>
    <vehicle id="E1__7__background.3" type="background" depart="439.40" departLane="random">
        <route edges="E1 E2"/>
    </vehicle>
    <vehicle id="E1__7__background.4" type="background" depart="450.15" departLane="random">
        <route edges="E1 E2"/>
    </vehicle>
    <vehicle id="E1__7__ego.1" type="ego" depart="457.85" departLane="random">
        <route edges="E1 E2"/>
    </vehicle>
    <vehicle id="E1__7__background.5" type="background" depart="468.77" departLane="random">
        <route edges="E1 E2"/>
    </vehicle>
    <vehicle id="E1__7__background.6" type="background" depart="471.40" departLane="random">
        <route edges="E1 E2"/>
    </vehicle>
    <vehicle id="E1__7__ego.2" type="ego" depart="473.82" departLane="random">
        <route edges="E1 E2"/>
    </vehicle>
    <vehicle id="E1__7__background.7" type="background" depart="473.90" departLane="random">
        <route edges="E1 E2"/>
    </vehicle>
    <vehicle id="E1__8__background.0" type="background" depart="481.00" departLane="random">
        <route edges="E1 E2"/>
    </vehicle>
    <vehicle id="E1__8__background.1" type="background" depart="485.41" departLane="random">
        <route edges="E1 E2"/>
    </vehicle>
    <vehicle id="E1__8__background.2" type="background" depart="489.59" departLane="random">
        <route edges="E1 E2"/>
    </vehicle>
    <vehicle id="E1__8__ego.0" type="ego" depart="497.09" departLane="random">
        <route edges="E1 E2"/>
    </vehicle>
    <vehicle id="E1__8__background.3" type="background" depart="505.18" departLane="random">
        <route edges="E1 E2"/>
    </vehicle>
    <vehicle id="E1__8__background.4" type="background" depart="513.16" departLane="random">
        <route edges="E1 E2"/>
    </vehicle>
    <vehicle id="E1__8__ego.1" type="ego" depart="519.77" departLane="random">
        <route edges="E1 E2"/>
    </vehicle>
    <vehicle id="E1__8__background.5" type="background" depart="530.83" departLane="random">
        <route edges="E1 E2"/>
    </vehicle>
    <vehicle id="E1__8__background.6" type="background" depart="532.84" departLane="random">
        <route edges="E1 E2"/>
    </vehicle>
    <vehicle id="E1__8__ego.2" type="ego" depart="533.95" departLane="random">
        <route edges="E1 E2"/>
    </vehicle>
    <vehicle id="E1__8__background.7" type="background" depart="537.52" departLane="random">
        <route edges="E1 E2"/>
    </vehicle>
    <vehicle id="E1__9__background.0" type="background" depart="548.82" departLane="random">
        <route edges="E1 E2"/>
    </vehicle>
    <vehicle id="E1__9__ego.0" type="ego" depart="553.75" departLane="random">
        <route edges="E1 E2"/>
    </vehicle>
    <vehicle id="E1__9__background.1" type="background" depart="558.82" departLane="random">
        <route edges="E1 E2"/>
    </vehicle>
    <vehicle id="E1__9__background.2" type="background" depart="561.15" departLane="random">
        <route edges="E1 E2"/>
    </vehicle>
    <vehicle id="E1__9__background.3" type="background" depart="561.25" departLane="random">
        <route edges="E1 E2"/>
    </vehicle>
    <vehicle id="E1__9__background.4" type="background" depart="580.90" departLane="random">
        <route edges="E1 E2"/>
    </vehicle>
    <vehicle id="E1__9__background.5" type="background" depart="584.49" departLane="random">
        <route edges="E1 E2"/>
    </vehicle>
    <vehicle id="E1__9__ego.1" type="ego" depart="585.73" departLane="random">
        <route edges="E1 E2"/>
    </vehicle>
    <vehicle id="E1__9__background.6" type="background" depart="588.93" departLane="random">
        <route edges="E1 E2"/>
    </vehicle>
    <vehicle id="E1__9__ego.2" type="ego" depart="591.75" departLane="random">
        <route edges="E1 E2"/>
    </vehicle>
    <vehicle id="E1__9__background.7" type="background" depart="594.15" departLane="random">
        <route edges="E1 E2"/>
    </vehicle>
    <vehicle id="E1__10__background.0" type="background" depart="603.60" departLane="random">
        <route edges="E1 E2"/>
    </vehicle>
    <vehicle id="E1__10__ego.0" type="ego" depart="608.79" departLane="random">
        <route edges="E1 E2"/>
    </vehicle>
    <vehicle id="E1__10__background.1" type="background" depart="609.26" departLane="random">
        <route edges="E1 E2"/>
    </vehicle>
    <vehicle id="E1__10__background.2" type="background" depart="634.31" departLane="random">
        <route edges="E1 E2"/>
    </vehicle>
    <vehicle id="E1__10__ego.1" type="ego" depart="634.60" departLane="random">
        <route edges="E1 E2"/>
    </vehicle>
    <vehicle id="E1__10__background.3" type="background" depart="636.68" departLane="random">
        <route edges="E1 E2"/>
    </vehicle>
    <vehicle id="E1__10__background.4" type="background" depart="637.11" departLane="random">
        <route edges="E1 E2"/>
    </vehicle>
    <vehicle id="E1__10__ego.2" type="ego" depart="644.11" departLane="random">
        <route edges="E1 E2"/>
    </vehicle>
    <vehicle id="E1__10__background.5" type="background" depart="645.63" departLane="random">
        <route edges="E1 E2"/>
    </vehicle>
    <vehicle id="E1__10__background.6" type="background" depart="651.29" departLane="random">
        <route edges="E1 E2"/>
    </vehicle>
    <vehicle id="E1__10__background.7" type="background" depart="655.70" departLane="random">
        <route edges="E1 E2"/>
    </vehicle>
    <vehicle id="E1__11__background.0" type="background" depart="663.47" departLane="random">
        <route edges="E1 E2"/>
    </vehicle>
    <vehicle id="E1__11__background.1" type="background" depart="665.34" departLane="random">
        <route edges="E1 E2"/>
    </vehicle>
    <vehicle id="E1__11__background.2" type="background" depart="670.81" departLane="random">
        <route edges="E1 E2"/>
    </vehicle>
    <vehicle id="E1__11__background.3" type="background" depart="673.62" departLane="random">
        <route edges="E1 E2"/>
    </vehicle>
    <vehicle id="E1__11__ego.0" type="ego" depart="677.41" departLane="random">
        <route edges="E1 E2"/>
    </vehicle>
    <vehicle id="E1__11__ego.1" type="ego" depart="682.40" departLane="random">
        <route edges="E1 E2"/>
    </vehicle>
    <vehicle id="E1__11__background.4" type="background" depart="690.73" departLane="random">
        <route edges="E1 E2"/>
    </vehicle>
    <vehicle id="E1__11__background.5" type="background" depart="705.20" departLane="random">
        <route edges="E1 E2"/>
    </vehicle>
    <vehicle id="E1__11__background.6" type="background" depart="705.79" departLane="random">
        <route edges="E1 E2"/>
    </vehicle>
    <vehicle id="E1__11__background.7" type="background" depart="713.97" departLane="random">
        <route edges="E1 E2"/>
    </vehicle>
    <vehicle id="E1__11__ego.2" type="ego" depart="715.99" departLane="random">
        <route edges="E1 E2"/>
    </vehicle>
    <vehicle id="E1__12__background.0" type="background" depart="723.44" departLane="random">
        <route edges="E1 E2"/>
    </vehicle>
    <vehicle id="E1__12__background.1" type="background" depart="726.85" departLane="random">
        <route edges="E1 E2"/>
    </vehicle>
    <vehicle id="E1__12__background.2" type="background" depart="730.71" departLane="random">
        <route edges="E1 E2"/>
    </vehicle>
    <vehicle id="E1__12__background.3" type="background" depart="733.15" departLane="random">
        <route edges="E1 E2"/>
    </vehicle>
    <vehicle id="E1__12__background.4" type="background" depart="752.85" departLane="random">
        <route edges="E1 E2"/>
    </vehicle>
    <vehicle id="E1__12__ego.0" type="ego" depart="753.56" departLane="random">
        <route edges="E1 E2"/>
    </vehicle>
    <vehicle id="E1__12__ego.1" type="ego" depart="762.32" departLane="random">
        <route edges="E1 E2"/>
    </vehicle>
    <vehicle id="E1__12__ego.2" type="ego" depart="764.33" departLane="random">
        <route edges="E1 E2"/>
    </vehicle>
    <vehicle id="E1__12__background.5" type="background" depart="765.69" departLane="random">
        <route edges="E1 E2"/>
    </vehicle>
    <vehicle id="E1__12__background.6" type="background" depart="775.68" departLane="random">
        <route edges="E1 E2"/>
    </vehicle>
    <vehicle id="E1__12__background.7" type="background" depart="776.13" departLane="random">
        <route edges="E1 E2"/>
    </vehicle>
    <vehicle id="E1__13__background.0" type="background" depart="784.98" departLane="random">
        <route edges="E1 E2"/>
    </vehicle>
    <vehicle id="E1__13__ego.0" type="ego" depart="787.40" departLane="random">
        <route edges="E1 E2"/>
    </vehicle>
    <vehicle id="E1__13__background.1" type="background" depart="789.68" departLane="random">
        <route edges="E1 E2"/>
    </vehicle>
    <vehicle id="E1__13__ego.1" type="ego" depart="793.00" departLane="random">
        <route edges="E1 E2"/>
    </vehicle>
    <vehicle id="E1__13__background.2" type="background" depart="811.63" departLane="random">
        <route edges="E1 E2"/>
    </vehicle>
    <vehicle id="E1__13__background.3" type="background" depart="813.36" departLane="random">
        <route edges="E1 E2"/>
    </vehicle>
    <vehicle id="E1__13__background.4" type="background" depart="813.90" departLane="random">
        <route edges="E1 E2"/>
    </vehicle>
    <vehicle id="E1__13__background.5" type="background" depart="819.12" departLane="random">
        <route edges="E1 E2"/>
    </vehicle>
    <vehicle id="E1__13__ego.2" type="ego" depart="819.75" departLane="random">
        <route edges="E1 E2"/>
    </vehicle>
    <vehicle id="E1__13__background.6" type="background" depart="828.47" departLane="random">
        <route edges="E1 E2"/>
    </vehicle>
    <vehicle id="E1__13__background.7" type="background" depart="837.06" departLane="random">
        <route edges="E1 E2"/>
    </vehicle>
    <vehicle id="E1__14__background.0" type="background" depart="844.42" departLane="random">
        <route edges="E1 E2"/>
    </vehicle>
    <vehicle id="E1__14__ego.0" type="ego" depart="845.02" departLane="random">
        <route edges="E1 E2"/>
    </vehicle>
    <vehicle id="E1__14__background.1" type="background" depart="855.69" departLane="random">
        <route edges="E1 E2"/>
    </vehicle>
    <vehicle id="E1__14__background.2" type="background" depart="857.02" departLane="random">
        <route edges="E1 E2"/>
    </vehicle>
    <vehicle id="E1__14__ego.1" type="ego" depart="864.06" departLane="random">
        <route edges="E1 E2"/>
    </vehicle>
    <vehicle id="E1__14__ego.2" type="ego" depart="866.84" departLane="random">
        <route edges="E1 E2"/>
    </vehicle>
    <vehicle id="E1__14__background.3" type="background" depart="875.06" departLane="random">
        <route edges="E1 E2"/>
    </vehicle>
    <vehicle id="E1__14__background.4" type="background" depart="877.79" departLane="random">
        <route edges="E1 E2"/>
    </vehicle>
    <vehicle id="E1__14__background.5" type="background" depart="892.97" departLane="random">
        <route edges="E1 E2"/>
    </vehicle>
    <vehicle id="E1__14__background.6" type="background" depart="895.99" departLane="random">
        <route edges="E1 E2"/>
    </vehicle>
    <vehicle id="E1__14__background.7" type="background" depart="899.84" departLane="random">
        <route edges="E1 E2"/>
    </vehicle>
    <vehicle id="E1__15__background.0" type="background" depart="909.40" departLane="random">
        <route edges="E1 E2"/>
    </vehicle>
    <vehicle id="E1__15__ego.0" type="ego" depart="910.00" departLane="random">
        <route edges="E1 E2"/>
    </vehicle>
    <vehicle id="E1__15__background.1" type="background" depart="910.39" departLane="random">
        <route edges="E1 E2"/>
    </vehicle>
    <vehicle id="E1__15__background.2" type="background" depart="920.50" departLane="random">
        <route edges="E1 E2"/>
    </vehicle>
    <vehicle id="E1__15__background.3" type="background" depart="922.48" departLane="random">
        <route edges="E1 E2"/>
    </vehicle>
    <vehicle id="E1__15__ego.1" type="ego" depart="923.93" departLane="random">
        <route edges="E1 E2"/>
    </vehicle>
    <vehicle id="E1__15__background.4" type="background" depart="926.47" departLane="random">
        <route edges="E1 E2"/>
    </vehicle>
    <vehicle id="E1__15__ego.2" type="ego" depart="929.95" departLane="random">
        <route edges="E1 E2"/>
    </vehicle>
    <vehicle id="E1__15__background.5" type="background" depart="934.59" departLane="random">
        <route edges="E1 E2"/>
    </vehicle>
    <vehicle id="E1__15__background.6" type="background" depart="943.02" departLane="random">
        <route edges="E1 E2"/>
    </vehicle>
    <vehicle id="E1__15__ego.3" type="ego" depart="947.89" departLane="random">
        <route edges="E1 E2"/>
    </vehicle>
    <vehicle id="E1__15__background.7" type="background" depart="959.77" departLane="random">
        <route edges="E1 E2"/>
    </vehicle>
    <vehicle id="E1__15__background.8" type="background" depart="959.81" departLane="random">
        <route edges="E1 E2"/>
    </vehicle>
    <vehicle id="E1__16__background.0" type="background" depart="961.71" departLane="random">
        <route edges="E1 E2"/>
    </vehicle>
    <vehicle id="E1__16__background.1" type="background" depart="966.73" departLane="random">
        <route edges="E1 E2"/>
    </vehicle>
    <vehicle id="E1__16__ego.0" type="ego" depart="967.76" departLane="random">
        <route edges="E1 E2"/>
    </vehicle>
    <vehicle id="E1__16__background.2" type="background" depart="968.42" departLane="random">
        <route edges="E1 E2"/>
    </vehicle>
    <vehicle id="E1__16__background.3" type="background" depart="974.92" departLane="random">
        <route edges="E1 E2"/>
    </vehicle>
    <vehicle id="E1__16__ego.1" type="ego" depart="983.69" departLane="random">
        <route edges="E1 E2"/>
    </vehicle>
    <vehicle id="E1__16__ego.2" type="ego" depart="986.20" departLane="random">
        <route edges="E1 E2"/>
    </vehicle>
    <vehicle id="E1__16__background.4" type="background" depart="1000.14" departLane="random">
        <route edges="E1 E2"/>
    </vehicle>
    <vehicle id="E1__16__background.5" type="background" depart="1003.04" departLane="random">
        <route edges="E1 E2"/>
    </vehicle>
    <vehicle id="E1__16__background.6" type="background" depart="1006.71" departLane="random">
        <route edges="E1 E2"/>
    </vehicle>
    <vehicle id="E1__16__background.7" type="background" depart="1009.36" departLane="random">
        <route edges="E1 E2"/>
    </vehicle>
    <vehicle id="E1__16__background.8" type="background" depart="1012.05" departLane="random">
        <route edges="E1 E2"/>
    </vehicle>
    <vehicle id="E1__16__ego.3" type="ego" depart="1019.99" departLane="random">
        <route edges="E1 E2"/>
    </vehicle>
    <vehicle id="E1__17__background.0" type="background" depart="1027.67" departLane="random">
        <route edges="E1 E2"/>
    </vehicle>
    <vehicle id="E1__17__background.1" type="background" depart="1032.88" departLane="random">
        <route edges="E1 E2"/>
    </vehicle>
    <vehicle id="E1__17__ego.0" type="ego" depart="1046.05" departLane="random">
        <route edges="E1 E2"/>
    </vehicle>
    <vehicle id="E1__17__background.2" type="background" depart="1051.05" departLane="random">
        <route edges="E1 E2"/>
    </vehicle>
    <vehicle id="E1__17__ego.1" type="ego" depart="1054.15" departLane="random">
        <route edges="E1 E2"/>
    </vehicle>
    <vehicle id="E1__17__background.3" type="background" depart="1056.25" departLane="random">
        <route edges="E1 E2"/>
    </vehicle>
    <vehicle id="E1__17__ego.2" type="ego" depart="1056.78" departLane="random">
        <route edges="E1 E2"/>
    </vehicle>
    <vehicle id="E1__17__background.4" type="background" depart="1059.78" departLane="random">
        <route edges="E1 E2"/>
    </vehicle>
    <vehicle id="E1__17__background.5" type="background" depart="1061.99" departLane="random">
        <route edges="E1 E2"/>
    </vehicle>
    <vehicle id="E1__17__background.6" type="background" depart="1068.55" departLane="random">
        <route edges="E1 E2"/>
    </vehicle>
    <vehicle id="E1__17__background.7" type="background" depart="1068.64" departLane="random">
        <route edges="E1 E2"/>
    </vehicle>
    <vehicle id="E1__17__background.8" type="background" depart="1070.06" departLane="random">
        <route edges="E1 E2"/>
    </vehicle>
    <vehicle id="E1__17__ego.3" type="ego" depart="1078.70" departLane="random">
        <route edges="E1 E2"/>
    </vehicle>
    <vehicle id="E1__18__ego.0" type="ego" depart="1096.85" departLane="random">
        <route edges="E1 E2"/>
    </vehicle>
    <vehicle id="E1__18__background.0" type="background" depart="1098.24" departLane="random">
        <route edges="E1 E2"/>
    </vehicle>
    <vehicle id="E1__18__background.1" type="background" depart="1101.88" departLane="random">
        <route edges="E1 E2"/>
    </vehicle>
    <vehicle id="E1__18__background.2" type="background" depart="1106.41" departLane="random">
        <route edges="E1 E2"/>
    </vehicle>
    <vehicle id="E1__18__ego.1" type="ego" depart="1111.43" departLane="random">
        <route edges="E1 E2"/>
    </vehicle>
    <vehicle id="E1__18__background.3" type="background" depart="1113.35" departLane="random">
        <route edges="E1 E2"/>
    </vehicle>
    <vehicle id="E1__18__background.4" type="background" depart="1114.50" departLane="random">
        <route edges="E1 E2"/>
    </vehicle>
    <vehicle id="E1__18__background.5" type="background" depart="1119.54" departLane="random">
        <route edges="E1 E2"/>
    </vehicle>
    <vehicle id="E1__18__ego.2" type="ego" depart="1122.07" departLane="random">
        <route edges="E1 E2"/>
    </vehicle>
    <vehicle id="E1__18__background.6" type="background" depart="1126.79" departLane="random">
        <route edges="E1 E2"/>
    </vehicle>
    <vehicle id="E1__18__background.7" type="background" depart="1127.34" departLane="random">
        <route edges="E1 E2"/>
    </vehicle>
    <vehicle id="E1__18__background.8" type="background" depart="1132.35" departLane="random">
        <route edges="E1 E2"/>
    </vehicle>