<?xml version="1.0" encoding="UTF-8"?>

<!-- generated on 2023-11-03 17:47:35 by Eclipse SUMO jtrrouter Version 1.18.0
<configuration xmlns:xsi="http://www.w3.org/2001/XMLSchema-instance" xsi:noNamespaceSchemaLocation="http://sumo.dlr.de/xsd/jtrrouterConfiguration.xsd">

    <input>
        <net-file value="/home/wmn/TransSimHub/benchmark/sumo_envs/veh_speed/./veh.net.xml"/>
        <route-files value="/home/wmn/TransSimHub/benchmark/sumo_envs/veh_speed/./testflow.trip.xml"/>
        <turn-ratio-files value="/home/wmn/TransSimHub/benchmark/sumo_envs/veh_speed/./testflow.turndefs.xml"/>
    </input>

    <output>
        <output-file value="/home/wmn/TransSimHub/benchmark/sumo_envs/veh_speed/./veh.rou.xml"/>
    </output>

    <processing>
        <randomize-flows value="True"/>
        <accept-all-destinations value="True"/>
    </processing>

    <defaults>
        <departlane value="random"/>
    </defaults>

    <report>
        <no-warnings value="true"/>
    </report>

    <random_number>
        <seed value="777"/>
    </random_number>

</configuration>
-->

<routes xmlns:xsi="http://www.w3.org/2001/XMLSchema-instance" xsi:noNamespaceSchemaLocation="http://sumo.dlr.de/xsd/routes_file.xsd">
    <vType id="background" length="7.00" maxSpeed="10.00" color="155,89,182" tau="1"/>
    <vType id="ego" length="7.00" maxSpeed="12.00" color="26,188,156" tau="1"/>

    <vehicle id="E0__0__background.0" type="background" depart="0.84" departLane="random">
        <route edges="E0 E1 E2 E3"/>
    </vehicle>
    <vehicle id="E0__0__background.1" type="background" depart="3.58" departLane="random">
        <route edges="E0 E1 E2 E3"/>
    </vehicle>
    <vehicle id="E0__0__background.2" type="background" depart="4.16" departLane="random">
        <route edges="E0 E1 E2 E3"/>
    </vehicle>
    <vehicle id="E0__0__background.3" type="background" depart="5.68" departLane="random">
        <route edges="E0 E1 E2 E3"/>
    </vehicle>
    <vehicle id="E0__0__background.4" type="background" depart="5.99" departLane="random">
        <route edges="E0 E1 E2 E3"/>
    </vehicle>
    <vehicle id="E0__0__background.5" type="background" depart="6.54" departLane="random">
        <route edges="E0 E1 E2 E3"/>
    </vehicle>
    <vehicle id="E0__0__background.6" type="background" depart="6.80" departLane="random">
        <route edges="E0 E1 E2 E3"/>
    </vehicle>
    <vehicle id="E0__0__background.7" type="background" depart="7.71" departLane="random">
        <route edges="E0 E1 E2 E3"/>
    </vehicle>
    <vehicle id="E0__0__background.8" type="background" depart="7.95" departLane="random">
        <route edges="E0 E1 E2 E3"/>
    </vehicle>
    <vehicle id="E0__0__background.9" type="background" depart="10.82" departLane="random">
        <route edges="E0 E1 E2 E3"/>
    </vehicle>
    <vehicle id="E0__0__background.10" type="background" depart="10.88" departLane="random">
        <route edges="E0 E1 E2 E3"/>
    </vehicle>
    <vehicle id="E0__0__background.11" type="background" depart="11.03" departLane="random">
        <route edges="E0 E1 E2 E3"/>
    </vehicle>
    <vehicle id="E0__0__background.12" type="background" depart="12.32" departLane="random">
        <route edges="E0 E1 E2 E3"/>
    </vehicle>
    <vehicle id="E0__0__background.13" type="background" depart="15.68" departLane="random">
        <route edges="E0 E1 E2 E3"/>
    </vehicle>
    <vehicle id="E0__0__background.14" type="background" depart="15.93" departLane="random">
        <route edges="E0 E1 E2 E3"/>
    </vehicle>
    <vehicle id="E0__0__background.15" type="background" depart="16.75" departLane="random">
        <route edges="E0 E1 E2 E3"/>
    </vehicle>
    <vehicle id="E0__0__background.16" type="background" depart="17.37" departLane="random">
        <route edges="E0 E1 E2 E3"/>
    </vehicle>
    <vehicle id="E0__0__background.17" type="background" depart="19.28" departLane="random">
        <route edges="E0 E1 E2 E3"/>
    </vehicle>

    <vehicle id="ego_0" type="ego" depart="20" departLane="0">
        <route edges="E0 E1 E2 E3"/>
    </vehicle>
    <vehicle id="ego_1" type="ego" depart="20" departLane="1">
        <route edges="E0 E1 E2 E3"/>
    </vehicle>
    <vehicle id="ego_2" type="ego" depart="20" departLane="2">
        <route edges="E0 E1 E2 E3"/>
    </vehicle>

    <vehicle id="E0__0__background.18" type="background" depart="20.32" departLane="random">
        <route edges="E0 E1 E2 E3"/>
    </vehicle>
    <vehicle id="E0__0__background.19" type="background" depart="23.35" departLane="random">
        <route edges="E0 E1 E2 E3"/>
    </vehicle>
    <vehicle id="E0__0__background.20" type="background" depart="25.22" departLane="random">
        <route edges="E0 E1 E2 E3"/>
    </vehicle>
    <vehicle id="E0__0__background.21" type="background" depart="25.90" departLane="random">
        <route edges="E0 E1 E2 E3"/>
    </vehicle>
    <vehicle id="E0__0__background.22" type="background" depart="26.23" departLane="random">
        <route edges="E0 E1 E2 E3"/>
    </vehicle>
    <vehicle id="E0__0__background.23" type="background" depart="26.40" departLane="random">
        <route edges="E0 E1 E2 E3"/>
    </vehicle>
    <vehicle id="E0__0__background.24" type="background" depart="26.70" departLane="random">
        <route edges="E0 E1 E2 E3"/>
    </vehicle>
    <vehicle id="E0__0__background.25" type="background" depart="26.95" departLane="random">
        <route edges="E0 E1 E2 E3"/>
    </vehicle>
    <vehicle id="E0__0__background.26" type="background" depart="28.29" departLane="random">
        <route edges="E0 E1 E2 E3"/>
    </vehicle>
    <vehicle id="E0__0__background.27" type="background" depart="28.79" departLane="random">
        <route edges="E0 E1 E2 E3"/>
    </vehicle>
    <vehicle id="E0__0__background.28" type="background" depart="30.89" departLane="random">
        <route edges="E0 E1 E2 E3"/>
    </vehicle>
    <vehicle id="E0__0__background.29" type="background" depart="31.08" departLane="random">
        <route edges="E0 E1 E2 E3"/>
    </vehicle>
    <vehicle id="E0__0__background.30" type="background" depart="33.66" departLane="random">
        <route edges="E0 E1 E2 E3"/>
    </vehicle>
    <vehicle id="E0__0__background.31" type="background" depart="35.91" departLane="random">
        <route edges="E0 E1 E2 E3"/>
    </vehicle>
    <vehicle id="E0__0__background.32" type="background" depart="36.79" departLane="random">
        <route edges="E0 E1 E2 E3"/>
    </vehicle>
    <vehicle id="E0__0__background.33" type="background" depart="39.15" departLane="random">
        <route edges="E0 E1 E2 E3"/>
    </vehicle>
    <vehicle id="E0__0__background.34" type="background" depart="40.54" departLane="random">
        <route edges="E0 E1 E2 E3"/>
    </vehicle>
    <vehicle id="E0__0__background.35" type="background" depart="40.85" departLane="random">
        <route edges="E0 E1 E2 E3"/>
    </vehicle>
    <vehicle id="E0__0__background.36" type="background" depart="41.30" departLane="random">
        <route edges="E0 E1 E2 E3"/>
    </vehicle>
    <vehicle id="E0__0__background.37" type="background" depart="43.19" departLane="random">
        <route edges="E0 E1 E2 E3"/>
    </vehicle>
    <vehicle id="E0__0__background.38" type="background" depart="44.46" departLane="random">
        <route edges="E0 E1 E2 E3"/>
    </vehicle>
    <vehicle id="E0__0__background.39" type="background" depart="46.02" departLane="random">
        <route edges="E0 E1 E2 E3"/>
    </vehicle>
    <vehicle id="E0__0__background.40" type="background" depart="46.02" departLane="random">
        <route edges="E0 E1 E2 E3"/>
    </vehicle>
    <vehicle id="E0__0__background.41" type="background" depart="47.92" departLane="random">
        <route edges="E0 E1 E2 E3"/>
    </vehicle>
    <vehicle id="E0__0__background.42" type="background" depart="48.14" departLane="random">
        <route edges="E0 E1 E2 E3"/>
    </vehicle>
    <vehicle id="E0__0__background.43" type="background" depart="48.23" departLane="random">
        <route edges="E0 E1 E2 E3"/>
    </vehicle>
    <vehicle id="E0__0__background.44" type="background" depart="51.52" departLane="random">
        <route edges="E0 E1 E2 E3"/>
    </vehicle>
    <vehicle id="E0__0__background.45" type="background" depart="52.13" departLane="random">
        <route edges="E0 E1 E2 E3"/>
    </vehicle>
    <vehicle id="E0__0__background.46" type="background" depart="53.45" departLane="random">
        <route edges="E0 E1 E2 E3"/>
    </vehicle>
    <vehicle id="E0__0__background.47" type="background" depart="54.94" departLane="random">
        <route edges="E0 E1 E2 E3"/>
    </vehicle>
    <vehicle id="E0__0__background.48" type="background" depart="56.15" departLane="random">
        <route edges="E0 E1 E2 E3"/>
    </vehicle>
    <vehicle id="E0__1__background.0" type="background" depart="60.03" departLane="random">
        <route edges="E0 E1 E2 E3"/>
    </vehicle>
    <vehicle id="E0__1__background.1" type="background" depart="60.09" departLane="random">
        <route edges="E0 E1 E2 E3"/>
    </vehicle>
    <vehicle id="E0__1__background.2" type="background" depart="60.19" departLane="random">
        <route edges="E0 E1 E2 E3"/>
    </vehicle>
    <vehicle id="E0__1__background.3" type="background" depart="61.54" departLane="random">
        <route edges="E0 E1 E2 E3"/>
    </vehicle>
    <vehicle id="E0__1__background.4" type="background" depart="61.72" departLane="random">
        <route edges="E0 E1 E2 E3"/>
    </vehicle>
    <vehicle id="E0__1__background.5" type="background" depart="63.43" departLane="random">
        <route edges="E0 E1 E2 E3"/>
    </vehicle>
    <vehicle id="E0__1__background.6" type="background" depart="63.47" departLane="random">
        <route edges="E0 E1 E2 E3"/>
    </vehicle>
    <vehicle id="E0__1__background.7" type="background" depart="64.54" departLane="random">
        <route edges="E0 E1 E2 E3"/>
    </vehicle>
    <vehicle id="E0__1__background.8" type="background" depart="64.84" departLane="random">
        <route edges="E0 E1 E2 E3"/>
    </vehicle>
    <vehicle id="E0__1__background.9" type="background" depart="69.31" departLane="random">
        <route edges="E0 E1 E2 E3"/>
    </vehicle>
    <vehicle id="E0__1__background.10" type="background" depart="70.17" departLane="random">
        <route edges="E0 E1 E2 E3"/>
    </vehicle>
    <vehicle id="E0__1__background.11" type="background" depart="71.26" departLane="random">
        <route edges="E0 E1 E2 E3"/>
    </vehicle>
    <vehicle id="E0__1__background.12" type="background" depart="72.29" departLane="random">
        <route edges="E0 E1 E2 E3"/>
    </vehicle>
    <vehicle id="E0__1__background.13" type="background" depart="72.41" departLane="random">
        <route edges="E0 E1 E2 E3"/>
    </vehicle>
    <vehicle id="E0__1__background.14" type="background" depart="73.67" departLane="random">
        <route edges="E0 E1 E2 E3"/>
    </vehicle>
    <vehicle id="E0__1__background.15" type="background" depart="74.01" departLane="random">
        <route edges="E0 E1 E2 E3"/>
    </vehicle>
    <vehicle id="E0__1__background.16" type="background" depart="75.08" departLane="random">
        <route edges="E0 E1 E2 E3"/>
    </vehicle>
    <vehicle id="E0__1__background.17" type="background" depart="75.59" departLane="random">
        <route edges="E0 E1 E2 E3"/>
    </vehicle>
    <vehicle id="E0__1__background.18" type="background" depart="76.46" departLane="random">
        <route edges="E0 E1 E2 E3"/>
    </vehicle>
    <vehicle id="E0__1__background.19" type="background" depart="76.73" departLane="random">
        <route edges="E0 E1 E2 E3"/>
    </vehicle>
    <vehicle id="E0__1__background.20" type="background" depart="78.84" departLane="random">
        <route edges="E0 E1 E2 E3"/>
    </vehicle>
    <vehicle id="E0__1__background.21" type="background" depart="80.50" departLane="random">
        <route edges="E0 E1 E2 E3"/>
    </vehicle>
</routes>
