<additional xmlns:xsi="http://www.w3.org/2001/XMLSchema-instance" xsi:noNamespaceSchemaLocation="http://sumo.dlr.de/xsd/additional_file.xsd">
    <e1Detector file="e1.output.xml" freq="60" friendlyPos="x" id="e1det--J1---E1---E1_0--rs" lane="-E1_0" pos="130.02"/>
    <e1Detector file="e1.output.xml" freq="60" friendlyPos="x" id="e1det--J1---E1---E1_1--s" lane="-E1_1" pos="130.02"/>
    <e1Detector file="e1.output.xml" freq="60" friendlyPos="x" id="e1det--J1---E1---E1_2--sl" lane="-E1_2" pos="130.02"/>
    <e1Detector file="e1.output.xml" freq="60" friendlyPos="x" id="e1det--J1---E4---E4_0--rs" lane="-E4_0" pos="90.48"/>
    <e1Detector file="e1.output.xml" freq="60" friendlyPos="x" id="e1det--J1---E4---E4_1--s" lane="-E4_1" pos="90.48"/>
    <e1Detector file="e1.output.xml" freq="60" friendlyPos="x" id="e1det--J1---E4---E4_2--sl" lane="-E4_2" pos="90.48"/>
    <e1Detector file="e1.output.xml" freq="60" friendlyPos="x" id="e1det--J1--E0--E0_0--rs" lane="E0_0" pos="156.74"/>
    <e1Detector file="e1.output.xml" freq="60" friendlyPos="x" id="e1det--J1--E0--E0_1--s" lane="E0_1" pos="156.74"/>
    <e1Detector file="e1.output.xml" freq="60" friendlyPos="x" id="e1det--J1--E0--E0_2--sl" lane="E0_2" pos="156.74"/>
    <e1Detector file="e1.output.xml" freq="60" friendlyPos="x" id="e1det--J1--E3--E3_0--rs" lane="E3_0" pos="89.85"/>
    <e1Detector file="e1.output.xml" freq="60" friendlyPos="x" id="e1det--J1--E3--E3_1--s" lane="E3_1" pos="89.85"/>
    <e1Detector file="e1.output.xml" freq="60" friendlyPos="x" id="e1det--J1--E3--E3_2--sl" lane="E3_2" pos="89.85"/>
    <e1Detector file="e1.output.xml" freq="60" friendlyPos="x" id="e1det--J2---E2---E2_0--rs" lane="-E2_0" pos="132.37"/>
    <e1Detector file="e1.output.xml" freq="60" friendlyPos="x" id="e1det--J2---E2---E2_1--s" lane="-E2_1" pos="132.37"/>
    <e1Detector file="e1.output.xml" freq="60" friendlyPos="x" id="e1det--J2---E2---E2_2--sl" lane="-E2_2" pos="132.37"/>
    <e1Detector file="e1.output.xml" freq="60" friendlyPos="x" id="e1det--J2---E6---E6_0--rs" lane="-E6_0" pos="98.3"/>
    <e1Detector file="e1.output.xml" freq="60" friendlyPos="x" id="e1det--J2---E6---E6_1--s" lane="-E6_1" pos="98.3"/>
    <e1Detector file="e1.output.xml" freq="60" friendlyPos="x" id="e1det--J2---E6---E6_2--sl" lane="-E6_2" pos="98.3"/>
    <e1Detector file="e1.output.xml" freq="60" friendlyPos="x" id="e1det--J2--E1--E1_0--rs" lane="E1_0" pos="130.02"/>
    <e1Detector file="e1.output.xml" freq="60" friendlyPos="x" id="e1det--J2--E1--E1_1--s" lane="E1_1" pos="130.02"/>
    <e1Detector file="e1.output.xml" freq="60" friendlyPos="x" id="e1det--J2--E1--E1_2--sl" lane="E1_2" pos="130.02"/>
    <e1Detector file="e1.output.xml" freq="60" friendlyPos="x" id="e1det--J2--E5--E5_0--rs" lane="E5_0" pos="97.71"/>
    <e1Detector file="e1.output.xml" freq="60" friendlyPos="x" id="e1det--J2--E5--E5_1--s" lane="E5_1" pos="97.71"/>
    <e1Detector file="e1.output.xml" freq="60" friendlyPos="x" id="e1det--J2--E5--E5_2--sl" lane="E5_2" pos="97.71"/>
    <e1Detector file="e1.output.xml" freq="60" friendlyPos="x" id="e1det--J3---E7---E7_0--rs" lane="-E7_0" pos="212.71"/>
    <e1Detector file="e1.output.xml" freq="60" friendlyPos="x" id="e1det--J3---E7---E7_1--s" lane="-E7_1" pos="212.71"/>
    <e1Detector file="e1.output.xml" freq="60" friendlyPos="x" id="e1det--J3---E7---E7_2--sl" lane="-E7_2" pos="212.71"/>
    <e1Detector file="e1.output.xml" freq="60" friendlyPos="x" id="e1det--J3---E9---E9_0--rs" lane="-E9_0" pos="106.56"/>
    <e1Detector file="e1.output.xml" freq="60" friendlyPos="x" id="e1det--J3---E9---E9_1--s" lane="-E9_1" pos="106.56"/>
    <e1Detector file="e1.output.xml" freq="60" friendlyPos="x" id="e1det--J3---E9---E9_2--sl" lane="-E9_2" pos="106.56"/>
    <e1Detector file="e1.output.xml" freq="60" friendlyPos="x" id="e1det--J3--E2--E2_0--rs" lane="E2_0" pos="132.37"/>
    <e1Detector file="e1.output.xml" freq="60" friendlyPos="x" id="e1det--J3--E2--E2_1--s" lane="E2_1" pos="132.37"/>
    <e1Detector file="e1.output.xml" freq="60" friendlyPos="x" id="e1det--J3--E2--E2_2--sl" lane="E2_2" pos="132.37"/>
    <e1Detector file="e1.output.xml" freq="60" friendlyPos="x" id="e1det--J3--E8--E8_0--rs" lane="E8_0" pos="104.54"/>
    <e1Detector file="e1.output.xml" freq="60" friendlyPos="x" id="e1det--J3--E8--E8_1--s" lane="E8_1" pos="104.54"/>
    <e1Detector file="e1.output.xml" freq="60" friendlyPos="x" id="e1det--J3--E8--E8_2--sl" lane="E8_2" pos="104.54"/>
</additional>
