<?xml version="1.0" encoding="UTF-8"?>

<!-- generated on 2023-12-15 23:02:40 by Eclipse SUMO netedit Version 1.19.0
<configuration xmlns:xsi="http://www.w3.org/2001/XMLSchema-instance" xsi:noNamespaceSchemaLocation="http://sumo.dlr.de/xsd/neteditConfiguration.xsd">

    <input>
        <sumo-net-file value="D:\ProgramData\GitLoadWareHouse\TransSimHub\benchmark\sumo_envs\veh_speed\veh4_2.net.xml"/>
    </input>

    <output>
        <output-file value="D:\ProgramData\GitLoadWareHouse\TransSimHub\benchmark\sumo_envs\veh_speed\veh4_2.net.xml"/>
    </output>

    <processing>
        <geometry.min-radius.fix.railways value="false"/>
        <geometry.max-grade.fix value="false"/>
        <offset.disable-normalization value="true"/>
        <lefthand value="0"/>
    </processing>

    <junctions>
        <no-turnarounds value="true"/>
        <junctions.corner-detail value="5"/>
        <junctions.limit-turn-speed value="5.50"/>
        <rectangular-lane-cut value="0"/>
    </junctions>

    <pedestrian>
        <walkingareas value="0"/>
    </pedestrian>

</configuration>
-->

<net version="1.16" junctionCornerDetail="5" limitTurnSpeed="5.50" xmlns:xsi="http://www.w3.org/2001/XMLSchema-instance" xsi:noNamespaceSchemaLocation="http://sumo.dlr.de/xsd/net_file.xsd">

    <location netOffset="0.00,0.00" convBoundary="-400.00,69.84,1200.10,69.94" origBoundary="-10000000000.00,-10000000000.00,10000000000.00,10000000000.00" projParameter="!"/>

    <edge id=":J1_0" function="internal">
        <lane id=":J1_0_0" index="0" speed="13.89" length="0.10" shape="200.00,65.04 200.00,65.04"/>
        <lane id=":J1_0_1" index="1" speed="13.89" length="0.10" shape="200.00,68.24 200.00,68.24"/>
        <lane id=":J1_0_2" index="2" speed="13.89" length="0.10" shape="200.00,71.44 200.00,71.44"/>
        <lane id=":J1_0_3" index="3" speed="13.89" length="0.10" shape="200.00,74.64 200.00,74.64"/>
    </edge>
    <edge id=":J2_0" function="internal">
        <lane id=":J2_0_0" index="0" speed="13.89" length="0.10" shape="700.00,65.04 700.00,65.04"/>
        <lane id=":J2_0_1" index="1" speed="13.89" length="0.10" shape="700.00,68.24 700.00,68.24"/>
        <lane id=":J2_0_2" index="2" speed="13.89" length="0.10" shape="700.00,71.44 700.00,71.44"/>
        <lane id=":J2_0_3" index="3" speed="13.89" length="0.10" shape="700.00,74.64 700.00,74.64"/>
    </edge>
    <edge id=":J3_0" function="internal">
        <lane id=":J3_0_0" index="0" speed="13.89" length="8.40" shape="996.00,65.04 998.46,65.54 1000.00,66.64 1001.54,67.74 1004.00,68.24"/>
        <lane id=":J3_0_1" index="1" speed="13.89" length="8.40" shape="996.00,68.24 1004.00,68.24"/>
        <lane id=":J3_0_2" index="2" speed="13.89" length="8.40" shape="996.00,71.44 1004.00,71.44"/>
        <lane id=":J3_0_3" index="3" speed="13.89" length="8.40" shape="996.00,74.64 998.46,74.14 1000.00,73.04 1001.54,71.94 1004.00,71.44"/>
    </edge>

    <edge id="E0" from="J0" to="J1" priority="-1" spreadType="center">
        <lane id="E0_0" index="0" speed="13.89" length="600.00" shape="-400.00,65.04 200.00,65.04"/>
        <lane id="E0_1" index="1" speed="13.89" length="600.00" shape="-400.00,68.24 200.00,68.24"/>
        <lane id="E0_2" index="2" speed="13.89" length="600.00" shape="-400.00,71.44 200.00,71.44"/>
        <lane id="E0_3" index="3" speed="13.89" length="600.00" shape="-400.00,74.64 200.00,74.64"/>
    </edge>
    <edge id="E1" from="J1" to="J2" priority="-1" spreadType="center">
        <lane id="E1_0" index="0" speed="13.89" length="500.00" shape="200.00,65.04 700.00,65.04"/>
        <lane id="E1_1" index="1" speed="13.89" length="500.00" shape="200.00,68.24 700.00,68.24"/>
        <lane id="E1_2" index="2" speed="13.89" length="500.00" shape="200.00,71.44 700.00,71.44"/>
        <lane id="E1_3" index="3" speed="13.89" length="500.00" shape="200.00,74.64 700.00,74.64"/>
    </edge>
    <edge id="E2" from="J2" to="J3" priority="-1" spreadType="center">
        <lane id="E2_0" index="0" speed="13.89" length="296.00" shape="700.00,65.04 996.00,65.04"/>
        <lane id="E2_1" index="1" speed="13.89" length="296.00" shape="700.00,68.24 996.00,68.24"/>
        <lane id="E2_2" index="2" speed="13.89" length="296.00" shape="700.00,71.44 996.00,71.44"/>
        <lane id="E2_3" index="3" speed="13.89" length="296.00" shape="700.00,74.64 996.00,74.64"/>
    </edge>
    <edge id="E3" from="J3" to="J4" priority="-1" spreadType="center" shape="1000.00,69.84 1200.10,69.94">
        <lane id="E3_0" index="0" speed="13.89" length="196.00" shape="1004.00,68.24 1200.00,68.34"/>
        <lane id="E3_1" index="1" speed="13.89" length="196.00" shape="1004.00,71.44 1200.00,71.54"/>
    </edge>

    <junction id="J0" type="dead_end" x="-400.00" y="69.84" incLanes="" intLanes="" shape="-400.00,76.24 -400.00,63.44"/>
    <junction id="J1" type="priority" x="200.00" y="69.84" incLanes="E0_0 E0_1 E0_2 E0_3" intLanes=":J1_0_0 :J1_0_1 :J1_0_2 :J1_0_3" shape="200.00,76.24 200.00,63.44 200.00,76.24">
        <request index="0" response="0000" foes="0000" cont="0"/>
        <request index="1" response="0000" foes="0000" cont="0"/>
        <request index="2" response="0000" foes="0000" cont="0"/>
        <request index="3" response="0000" foes="0000" cont="0"/>
    </junction>
    <junction id="J2" type="priority" x="700.00" y="69.84" incLanes="E1_0 E1_1 E1_2 E1_3" intLanes=":J2_0_0 :J2_0_1 :J2_0_2 :J2_0_3" shape="700.00,76.24 700.00,63.44 700.00,76.24" customShape="1">
        <request index="0" response="0000" foes="0000" cont="0"/>
        <request index="1" response="0000" foes="0000" cont="0"/>
        <request index="2" response="0000" foes="0000" cont="0"/>
        <request index="3" response="0000" foes="0000" cont="0"/>
    </junction>
    <junction id="J3" type="priority" x="1000.00" y="69.84" incLanes="E2_0 E2_1 E2_2 E2_3" intLanes=":J3_0_0 :J3_0_1 :J3_0_2 :J3_0_3" shape="1004.00,73.04 1004.00,66.64 1000.97,65.81 999.03,64.27 997.79,63.68 996.00,63.44 996.00,76.24 999.03,75.41 1000.97,73.87 1002.21,73.28">
        <request index="0" response="0010" foes="0010" cont="0"/>
        <request index="1" response="0000" foes="0001" cont="0"/>
        <request index="2" response="1000" foes="1000" cont="0"/>
        <request index="3" response="0000" foes="0100" cont="0"/>
    </junction>
    <junction id="J4" type="dead_end" x="1200.00" y="69.84" incLanes="E3_0 E3_1" intLanes="" shape="1200.00,66.74 1200.00,73.14"/>

    <connection from="E0" to="E1" fromLane="0" toLane="0" via=":J1_0_0" dir="s" state="M"/>
    <connection from="E0" to="E1" fromLane="1" toLane="1" via=":J1_0_1" dir="s" state="M"/>
    <connection from="E0" to="E1" fromLane="2" toLane="2" via=":J1_0_2" dir="s" state="M"/>
    <connection from="E0" to="E1" fromLane="3" toLane="3" via=":J1_0_3" dir="s" state="M"/>
    <connection from="E1" to="E2" fromLane="0" toLane="0" via=":J2_0_0" dir="s" state="M"/>
    <connection from="E1" to="E2" fromLane="1" toLane="1" via=":J2_0_1" dir="s" state="M"/>
    <connection from="E1" to="E2" fromLane="2" toLane="2" via=":J2_0_2" dir="s" state="M"/>
    <connection from="E1" to="E2" fromLane="3" toLane="3" via=":J2_0_3" dir="s" state="M"/>
    <connection from="E2" to="E3" fromLane="0" toLane="0" via=":J3_0_0" dir="s" state="M"/>
    <connection from="E2" to="E3" fromLane="1" toLane="0" via=":J3_0_1" dir="s" state="M"/>
    <connection from="E2" to="E3" fromLane="2" toLane="1" via=":J3_0_2" dir="s" state="M"/>
    <connection from="E2" to="E3" fromLane="3" toLane="1" keepClear="0" via=":J3_0_3" dir="s" state="M"/>

    <connection from=":J1_0" to="E1" fromLane="0" toLane="0" dir="s" state="M"/>
    <connection from=":J1_0" to="E1" fromLane="1" toLane="1" dir="s" state="M"/>
    <connection from=":J1_0" to="E1" fromLane="2" toLane="2" dir="s" state="M"/>
    <connection from=":J1_0" to="E1" fromLane="3" toLane="3" dir="s" state="M"/>
    <connection from=":J2_0" to="E2" fromLane="0" toLane="0" dir="s" state="M"/>
    <connection from=":J2_0" to="E2" fromLane="1" toLane="1" dir="s" state="M"/>
    <connection from=":J2_0" to="E2" fromLane="2" toLane="2" dir="s" state="M"/>
    <connection from=":J2_0" to="E2" fromLane="3" toLane="3" dir="s" state="M"/>
    <connection from=":J3_0" to="E3" fromLane="0" toLane="0" dir="s" state="M"/>
    <connection from=":J3_0" to="E3" fromLane="1" toLane="0" dir="s" state="M"/>
    <connection from=":J3_0" to="E3" fromLane="2" toLane="1" dir="s" state="M"/>
    <connection from=":J3_0" to="E3" fromLane="3" toLane="1" dir="s" state="M"/>

</net>
